pglib_opf_case1888_rte/pglib_opf_case1888_rte_12regions.m
% -------------------------------------------------------------------------
% Partitioned MATPOWER Case File
% Copyright (c) 2025 Milad Hasanzadeh
% Generated on: 2025-06-21
% This file contains partitioned data for 12 regions


% -------------------- mpc_regionR1 --------------------

mpc_regionR1.version = '2';
mpc_regionR1.baseMVA = 100.0000;
mpc_regionR1.bus = [
%	bus_i       type        Pd          Qd          Gs          Bs          area        Vm          Va          baseKV      zone        Vmax        Vmin        
	 1	 1	 38.2	 6.3	 0	 0	 1	 1.04606	 0	 225	 1	 1.09212	 1;
	 2	 1	 0	 0	 0	 0	 1	 1.07655	 0	 380	 1	 1.10526	 1.04785;
	 3	 2	 0	 0	 0	 0	 1	 1.00422	 0	 150	 1	 1.10843	 0.9;
	 4	 2	 0	 0	 0	 0	 1	 1.00431	 0	 150	 1	 1.10862	 0.9;
	 5	 1	 31.6	 2.6	 0	 0	 1	 1	 0	 150	 1	 1.1	 0.9;
	 6	 1	 68.9	-11.7	 0	 0	 1	 1.04445	 0	 225	 1	 1.08889	 1;
	 7	 1	 99.5	-12.4	 0	 0	 1	 1.04806	 0	 225	 1	 1.09612	 1;
	 8	 1	 33.7	-1.8	 0	 0	 1	 1	 0	 63	 1	 1.07937	 0.92063;
	 9	 1	 119.3	-16.4	 0	 0	 1	 1.04897	 0	 225	 1	 1.09795	 1;
	 10	 1	 0	 0	 0	 0	 1	 1.07773	 0	 380	 1	 1.10526	 1.05019;
	 11	 1	 0	 0	 0	-64	 1	 1.15	 0	 20	 1	 1.4	 0.9;
	 12	 1	 0	 0	 0	-64	 1	 1.15	 0	 20	 1	 1.4	 0.9;
	 13	 1	 0	 0	 0	 0	 1	 1.04445	 0	 225	 1	 1.08889	 1;
	 14	 1	 0	 0	 0	 0	 1	 1.04445	 0	 225	 1	 1.08889	 1;
	 15	 1	 0	 0	 0	 0	 1	 1.07773	 0	 380	 1	 1.10526	 1.05019;
	 16	 1	 0	 0	 0	 0	 1	 1.01149	 0	 150	 1	 1.12298	 0.9;
	 17	 1	 19.3	-1.2	 0	 0	 1	 1.04775	 0	 225	 1	 1.0955	 1;
	 18	 1	 134.1	-13.3	 0	 0	 1	 1.04445	 0	 225	 1	 1.08889	 1;
	 19	 1	 0	 0	 0	 0	 1	 1.00321	 0	 150	 1	 1.10642	 0.9;
	 20	 1	-13.4	-22	 0	 0	 1	 1.00517	 0	 150	 1	 1.11033	 0.9;
	 21	 1	 67.8	-6.3	 0	 0	 1	 1.04445	 0	 225	 1	 1.08889	 1;
	 22	 1	 18.1	-2.2	 0	 0	 1	 1	 0	 63	 1	 1.07937	 0.92063;
	 23	 1	 0	 0	 0	 0	 1	 1.04551	 0	 225	 1	 1.09102	 1;
	 24	 1	 8	-0.5	 0	 0	 1	 1.00405	 0	 20	 1	 1.1081	 0.9;
	 25	 1	 0	 0	 0	 0	 1	 1.00396	 0	 150	 1	 1.10792	 0.9;
	 26	 1	 4.8	 1.5	 0	 0	 1	 1.01614	 0	 150	 1	 1.13227	 0.9;
	 27	 1	 81.9	-27.9	 0	 0	 1	 1.01309	 0	 63	 1	 1.10555	 0.92063;
	 28	 1	 102.1	 11.4	 0	 0	 1	 1.01309	 0	 63	 1	 1.10555	 0.92063;
	 29	 1	 0	 0	 0	 0	 1	 1.04659	 0	 225	 1	 1.09318	 1;
	 30	 1	 0	 0	 0	 0	 1	 1.07642	 0	 380	 1	 1.10526	 1.04758;
	 31	 1	-0	 0	 0	 0	 1	 1.00439	 0	 150	 1	 1.10877	 0.9;
	 32	 1	-5.8	 2.5	 0	 0	 1	 1.04762	 0	 225	 1	 1.09524	 1;
	 33	 2	 0	 0	 0	 0	 1	 1.00423	 0	 150	 1	 1.10847	 0.9;
	 34	 1	 2.3	 2.1	 0	 0	 1	 1.00422	 0	 150	 1	 1.10844	 0.9;
	 35	 1	 223.4	-22	 0	 0	 1	 1.04689	 0	 225	 1	 1.09377	 1;
	 36	 1	 111.1	-49.1	 0	 0	 1	 1.05096	 0	 225	 1	 1.10192	 1;
	 37	 2	 2.1	 0	 0	 0	 1	 1.00439	 0	 150	 1	 1.10879	 0.9;
	 38	 1	 68.1	-0.8	 0	 0	 1	 1	 0	 63	 1	 1.07937	 0.92063;
	 39	 2	 0	 0	 0	 0	 1	 1.01855	 0	 150	 1	 1.1371	 0.9;
	 40	 2	 17.4	-14.2	 0	 0	 1	 1	 0	 225	 1	 1.1	 0.9;
	 41	 1	 0	 0	 0	 0	 1	 1.00521	 0	 150	 1	 1.11042	 0.9;
	 42	 1	 6.8	 6.5	 0	 0	 1	 1.00351	 0	 150	 1	 1.10701	 0.9;
	 43	 1	 41.3	 17.9	 0	 0	 1	 1.04708	 0	 225	 1	 1.09416	 1;
	 44	 2	 0	 0	 0	 0	 1	 1.00423	 0	 150	 1	 1.10847	 0.9;
	 45	 1	 0	 0	 0	 0	 1	 1.03764	 0	 150	 1	 1.10862	 0.96667;
	 46	 1	 0	 0	 0	 0	 1	 1	 0	 63	 1	 1.07937	 0.92063;
	 47	 1	 0	 0	 0	 0	 1	 1.03757	 0	 150	 1	 1.10847	 0.96667;
	 48	 1	 0	 0	 0	 0	 1	 1.03773	 0	 150	 1	 1.10879	 0.96667;
	 49	 1	 0	 0	 0	 0	 1	 1	 0	 63	 1	 1.07937	 0.92063;
	 50	 1	 0	 0	 0	 0	 1	 1	 0	 380	 1	 1.2	 0.8;
	 51	 1	 0	 0	 0	 0	 1	 1	 0	 380	 1	 1.2	 0.8;
	 52	 1	 89.9	 63.1	 0	 0	 1	 1.04606	 0	 225	 1	 1.09212	 1;
	 53	 1	 29.6	 26	 0	 0	 1	 1	 0	 225	 1	 1.1	 0.9;
	 54	 1	 520.1	-183.3	 0	 0	 1	 1.07655	 0	 380	 1	 1.10526	 1.04785;
];

mpc_regionR1.gen = [
%	bus         Pg          Qg          Qmax        Qmin        Vg          mBase       status      Pmax        Pmin        Pc1         Pc2         Qc1min      Qc1max      Qc2min      Qc2max      ramp_agc    ramp_10     ramp_30     ramp_q      apf         
	 37	 12	 1.95	 2	 1.9	 1.004395	 100	 1	 20	 4;
	 33	 0	 0	 1	 0.9	 1.004235	 100	 0	 12	 2.4;
	 33	 8.4	 0.95	 1	 0.9	 1.004235	 100	 1	 14	 2.8;
	 33	 0	 0	 1	 0.9	 1.004235	 100	 0	 12	 2.4;
	 40	 21	 0	 15	-15	 1	 100	 1	 35	 7;
	 3	 18	 3	 10	-4	 1.004215	 100	 1	 30	 6;
	 39	-0	 0	 0	 0	 1.01855	 100	 0	 0	-8;
	 39	 31.8	 3.5	 17	-10	 1.01855	 100	 1	 53	 10.6;
	 4	 0	 0	 2	 1.9	 1.00431	 100	 0	 6	 1.2;
	 44	 6.6	 0.95	 1	 0.9	 1.004235	 100	 1	 11	 2.2;
	 44	 1.25	 0	 0.1	-0.1	 1.004235	 100	 1	 2.5	 0;
	 41	 23.4	 0	 19	-19	 1.00521	 100	 1	 39	 7.8;
];

mpc_regionR1.branch = [
%	fbus        tbus        r           x           b           rateA       rateB       rateC       ratio       angle       status      angmin      angmax      
	 35	 1	 0.000729	 0.005118	 0.0933	 389	 389	 389	 0	 0	 1	-30	 30;
	 35	 1	 0.000755	 0.005235	 0.0909	 419	 419	 419	 0	 0	 1	-30	 30;
	 10	 2	 0.001787	 0.01946	 0.4214	 1579	 1579	 1579	 0	 0	 1	-30	 30;
	 44	 3	 0.002933	 0.010267	 0.0032	 3004	 3004	 3004	 0	 0	 1	-30	 30;
	 45	 3	 0.0028	 0.007511	 0.0022	 4003	 4003	 4003	 0	 0	 1	-30	 30;
	 45	 4	 0.000578	 0.001156	 0.0004	 24825	 24825	 24825	 0	 0	 1	-30	 30;
	 19	 5	 0.030213	 0.105538	 0.0315	 291	 291	 291	 0	 0	 1	-30	 30;
	 20	 5	 0.019498	 0.06712	 0.0206	 459	 459	 459	 0	 0	 1	-30	 30;
	 21	 6	 0.006262	 0.040849	 0.0749	 398	 398	 398	 0	 0	 1	-30	 30;
	 9	 7	 0.00241	 0.015694	 0.0294	 413	 413	 413	 0	 0	 1	-30	 30;
	 29	 7	 0.006874	 0.044761	 0.0835	 413	 413	 413	 0	 0	 1	-30	 30;
	 22	 8	 0.007307	 0.029226	 0.0316	 1010	 1010	 1010	 0	 0	 1	-30	 30;
	 46	 8	 0.006551	 0.01285	 0.0128	 2109	 2109	 2109	 0	 0	 1	-30	 30;
	 29	 9	 0.00924	 0.060219	 0.1124	 413	 413	 413	 0	 0	 1	-30	 30;
	 35	 9	 0.009007	 0.066726	 0.1192	 467	 467	 467	 0	 0	 1	-30	 30;
	 36	 9	 0.004543	 0.030479	 0.0547	 420	 420	 420	 0	 0	 1	-30	 30;
	 36	 9	 0.004326	 0.029037	 0.0527	 389	 389	 389	 0	 0	 1	-30	 30;
	 18	 14	 0.013096	 0.066153	 0.12	 336	 336	 336	 0	 0	 1	-30	 30;
	 21	 13	 0.002074	 0.009956	 0.0172	 336	 336	 336	 0	 0	 1	-30	 30;
	 21	 13	 0.001533	 0.009225	 0.0172	 422	 422	 422	 0	 0	 1	-30	 30;
	 21	 14	 0.00156	 0.009343	 0.0172	 422	 422	 422	 0	 0	 1	-30	 30;
	 30	 15	 0.001452	 0.020223	 0.6741	 1573	 1573	 1573	 0	 0	 1	-30	 30;
	 30	 15	 0.001447	 0.020166	 0.6721	 1578	 1578	 1578	 0	 0	 1	-30	 30;
	 20	 16	 0.026449	 0.06568	 0.0207	 463	 463	 463	 0	 0	 1	-30	 30;
	 26	 16	 0.012133	 0.030178	 0.0095	 1026	 1026	 1026	 0	 0	 1	-30	 30;
	 29	 17	 0.008535	 0.038929	 0.0678	 268	 268	 268	 0	 0	 1	-30	 30;
	 32	 17	 0.001106	 0.005136	 0.0081	 5963	 5963	 5963	 0	 0	 1	-30	 30;
	 25	 19	 0.021422	 0.075067	 0.0243	 411	 411	 411	 0	 0	 1	-30	 30;
	 31	 19	 0.0252	 0.085911	 0.0252	 359	 359	 359	 0	 0	 1	-30	 30;
	 47	 20	 0.010533	 0.0368	 0.0121	 841	 841	 841	 0	 0	 1	-30	 30;
	 40	 21	 0.011206	 0.050285	 0.0899	 346	 346	 346	 0	 0	 1	-30	 30;
	 38	 22	 0.017133	 0.054926	 0.0006	 529	 529	 529	 0	 0	 1	-30	 30;
	 29	 23	 0.002143	 0.014358	 0.0264	 420	 420	 420	 0	 0	 1	-30	 30;
	 42	 25	 0.004507	 0.013102	 0.0043	 2312	 2312	 2312	 0	 0	 1	-30	 30;
	 47	 25	 0.012933	 0.044356	 0.0144	 695	 695	 695	 0	 0	 1	-30	 30;
	 48	 25	 0.002711	 0.008889	 0.0032	 3453	 3453	 3453	 0	 0	 1	-30	 30;
	 39	 26	 0.006409	 0.016431	 0.005	 1911	 1911	 1911	 0	 0	 1	-30	 30;
	 46	 27	 0.071454	 0.242605	 0.0033	 126	 126	 126	 0	 0	 1	-30	 30;
	 49	 27	 0.022525	 0.13933	 0.0018	 225	 225	 225	 0	 0	 1	-30	 30;
	 38	 27	 0.068531	 0.219955	 0.0026	 138	 138	 138	 0	 0	 1	-30	 30;
	 40	 29	 0.015488	 0.067417	 0.1205	 298	 298	 298	 0	 0	 1	-30	 30;
	 41	 31	 0.006889	 0.018756	 0	 1610	 1610	 1610	 0	 0	 1	-30	 30;
	 44	 33	 0.001644	 0.005778	 0.0018	 5340	 5340	 5340	 0	 0	 1	-30	 30;
	 47	 34	 0.000347	 0.000813	 0.0018	 36286	 36286	 36286	 0	 0	 1	-30	 30;
	 43	 35	 0.000711	 0.00324	 0.2916	 293	 293	 293	 0	 0	 1	-30	 30;
	 48	 37	 0.000222	 0.000711	 0.0004	 43088	 43088	 43088	 0	 0	 1	-30	 30;
	 49	 38	 0.030738	 0.075586	 0.0009	 373	 373	 373	 0	 0	 1	-30	 30;
	 48	 45	 0.002756	 0.007867	 0.0022	 3850	 3850	 3850	 0	 0	 1	-30	 30;
	 1	 2	 0.000332	 0.025	 0	 1187	 1187	 1187	 1.001	 0	 1	-30	 30;
	 9	 10	 0.000332	 0.024931	 0	 1186	 1186	 1186	 1.001	 0	 1	-30	 30;
	 9	 10	 0.000332	 0.024931	 0	 1186	 1186	 1186	 1.001	 0	 1	-30	 30;
	 12	 50	 0.003428	 0.143421	 0	 384	 384	 384	 1	 0	 1	-30	 30;
	 11	 51	 0.003366	 0.141343	 0	 390	 390	 390	 1	 0	 1	-30	 30;
	 14	 50	 0.000499	-0.008379	 0	 606	 606	 606	 1.002005	 0	 1	-30	 30;
	 13	 51	 0.000325	-0.008726	 0	 557	 557	 557	 1.002005	 0	 1	-30	 30;
	 15	 50	 0.000298	 0.048407	 0	 606	 606	 606	 0	 0	 1	-30	 30;
	 15	 51	 0.000381	 0.047715	 0	 557	 557	 557	 0	 0	 1	-30	 30;
	 20	 21	 0.0032	 0.124444	 0	 257	 257	 257	 1	 0	 1	-30	 30;
	 22	 23	 0.001936	 0.115358	 0	 269	 269	 269	 1.023541	 0	 1	-30	 30;
	 24	 25	 0.001956	 0.003956	 0	 974	 974	 974	 1	 0	 1	-30	 30;
	 27	 29	 0.003378	 0.105679	 0	 301	 301	 301	 0.968054	 0	 1	-30	 30;
	 27	 29	 0.003299	 0.107654	 0	 295	 295	 295	 0.978474	 0	 1	-30	 30;
	 28	 30	 0.001807	 0.100831	 0	 317	 317	 317	 0.95602	 0	 1	-30	 30;
	 28	 30	 0.00178	 0.100139	 0	 319	 319	 319	 0.95602	 0	 1	-30	 30;
	 29	 30	 0.000759	 0.035838	 0	 886	 886	 886	 1.001	 0	 1	-30	 30;
	 1	 52	 0.002222	 0.014124	 0.0294	 470	 470	 470	 0	 0	 1	-30	 30;
	 40	 53	 0.004375	 0.020138	 0.0327	 336	 336	 336	 0	 0	 1	-30	 30;
	 2	 54	 0.000544	 0.005865	 0.1274	 1624	 1624	 1624	 0	 0	 1	-30	 30;
];

mpc_regionR1.gencost = [
%	2           startup     shutdown    n           c(n-1)...c0 
	 2	 0	 0	 3	 0	 37.203873	 0;
	 2	 0	 0	 3	 0	 49.778795	 0;
	 2	 0	 0	 3	 0	 27.586445	 0;
	 2	 0	 0	 3	 0	 21.586989	 0;
	 2	 0	 0	 3	 0	 26.419861	 0;
	 2	 0	 0	 3	 0	 111.022896	 0;
	 2	 0	 0	 3	 0	 0	 0;
	 2	 0	 0	 3	 0	 34.301794	 0;
	 2	 0	 0	 3	 0	 32.859582	 0;
	 2	 0	 0	 3	 0	 43.179533	 0;
	 2	 0	 0	 3	 0	 106.557899	 0;
	 2	 0	 0	 3	 0	 119.630609	 0;
];


% -------------------- mpc_regionR2 --------------------

mpc_regionR2.version = '2';
mpc_regionR2.baseMVA = 100.0000;
mpc_regionR2.bus = [
%	bus_i       type        Pd          Qd          Gs          Bs          area        Vm          Va          baseKV      zone        Vmax        Vmin        
	 1	 1	 0	 0	 0	 0	 1	 1.04445	 0	 225	 1	 1.08889	 1;
	 2	 1	 27.3	-10.9	 0	 0	 1	 1.01139	 0	 225	 1	 1.08945	 0.93333;
	 3	 1	 11.4	-9.7	 0	 0	 1	 1.04445	 0	 225	 1	 1.08889	 1;
	 4	 1	 89.9	-5.8	 0	 0	 1	 1.04445	 0	 225	 1	 1.08889	 1;
	 5	 1	 0	 0	 0	 0	 1	 1.04445	 0	 225	 1	 1.08889	 1;
	 6	 1	 239.8	 17.5	 0	 0	 1	 1.07798	 0	 380	 1	 1.10526	 1.0507;
	 7	 1	 35.5	 16	 0	 0	 1	 1.04445	 0	 225	 1	 1.08889	 1;
	 8	 1	 76.1	 23	 0	 0	 1	 1.04445	 0	 225	 1	 1.08889	 1;
	 9	 1	 11.7	 1.3	 0	 0	 1	 1.04445	 0	 225	 1	 1.08889	 1;
	 10	 1	 106.1	-0.3	 0	 0	 1	 1.01111	 0	 225	 1	 1.08889	 0.93333;
	 11	 1	 0	 0	 0	 0	 1	 1.07237	 0	 380	 1	 1.10526	 1.03947;
	 12	 1	 43.3	 8.4	 0	 0	 1	 1.04445	 0	 225	 1	 1.08889	 1;
	 13	 1	 1.7	-4.4	 0	 0	 1	 1.01111	 0	 225	 1	 1.08889	 0.93333;
	 14	 1	-1.9	-5.4	 0	 0	 1	 1.04884	 0	 225	 1	 1.09768	 1;
	 15	 1	 0	 0	 0	 0	 1	 1.07895	 0	 380	 1	 1.10526	 1.05263;
	 16	 1	 0	 0	 0	 0	 1	 1.07895	 0	 380	 1	 1.10526	 1.05263;
	 17	 1	 0	 0	 0	 0	 1	 1.07895	 0	 380	 1	 1.10526	 1.05263;
	 18	 1	 0	 0	 0	 0	 1	 1.07895	 0	 380	 1	 1.10526	 1.05263;
	 19	 1	 0	 0	 0	 0	 1	 1.04739	 0	 225	 1	 1.09478	 1;
	 20	 1	 0	 0	 0	 0	 1	 1.04739	 0	 225	 1	 1.09478	 1;
	 21	 1	 37.1	 5.6	 0	 0	 1	 1.04445	 0	 225	 1	 1.08889	 1;
	 22	 1	 24.8	-1.8	 0	 0	 1	 1.04445	 0	 225	 1	 1.08889	 1;
	 23	 1	 0	 0	 0	 0	 1	 1.04883	 0	 225	 1	 1.09766	 1;
	 24	 1	 0	 0	 0	 0	 1	 1.07895	 0	 380	 1	 1.10526	 1.05263;
	 25	 1	 26.2	 2.1	 0	 0	 1	 1.04445	 0	 225	 1	 1.08889	 1;
	 26	 1	 0	 0	 0	-64	 1	 1.15	 0	 20	 1	 1.4	 0.9;
	 27	 1	 0	 0	 0	 0	 1	 1.0447	 0	 225	 1	 1.08941	 1;
	 28	 1	 0	 0	 0	 0	 1	 1.07895	 0	 380	 1	 1.10526	 1.05263;
	 29	 1	 107.9	 3.9	 0	 0	 1	 1.04445	 0	 225	 1	 1.08889	 1;
	 30	 1	 0	 0	 0	 0	 1	 1.04444	 0	 225	 1	 1.08444	 1.00444;
	 31	 1	 0	 0	 0	 0	 1	 1.0448	 0	 225	 1	 1.08959	 1;
	 32	 1	 0	 0	 0	 0	 1	 1.0448	 0	 225	 1	 1.08959	 1;
	 33	 1	 96.9	-28.2	 0	 0	 1	 1.04723	 0	 225	 1	 1.09445	 1;
	 34	 1	-1.7	-3.4	 0	 0	 1	 1.07237	 0	 380	 1	 1.10263	 1.04211;
	 35	 1	-10.7	-3.4	 0	 0	 1	 1.07237	 0	 380	 1	 1.10263	 1.04211;
	 36	 1	 141.6	 32.1	 0	 0	 1	 1.04445	 0	 225	 1	 1.08889	 1;
	 37	 1	 17.7	 6.3	 0	 0	 1	 1.01111	 0	 225	 1	 1.08889	 0.93333;
	 38	 2	 0	 0	 0	 0	 1	 1	 0	 225	 1	 1.1	 0.9;
	 39	 2	 0	 0	 0	 0	 1	 1.01705	 0	 225	 1	 1.0841	 0.95;
	 40	 1	 0	 0	 0	 0	 1	 1.04445	 0	 225	 1	 1.08889	 1;
	 41	 1	 90.6	 16.2	 0	 0	 1	 1.04445	 0	 225	 1	 1.08889	 1;
	 42	 1	 0	 0	 0	 0	 1	 1.07895	 0	 380	 1	 1.10526	 1.05263;
	 43	 1	 54.2	-25.9	 0	 0	 1	 1.04445	 0	 225	 1	 1.08889	 1;
	 44	 1	 0	 0	 0	 0	 1	 1.04445	 0	 225	 1	 1.08889	 1;
	 45	 1	 0	 0	 0	 0	 1	 1.07895	 0	 380	 1	 1.10526	 1.05263;
	 46	 1	 59.8	 8.6	 0	 0	 1	 1.04445	 0	 225	 1	 1.08889	 1;
	 47	 1	 0	 0	 0	-64	 1	 0.9933	 0	 20	 1	 1.05	 0.9366;
	 48	 1	 84.1	-55	 0	 0	 1	 1.04444	 0	 225	 1	 1.08444	 1.00444;
	 49	 1	 0	 0	 0	 0	 1	 1.07237	 0	 380	 1	 1.10263	 1.04211;
	 50	 1	 0	 0	 0	 0	 1	 1.04445	 0	 225	 1	 1.08889	 1;
	 51	 1	 141.4	 14.3	 0	 0	 1	 1.01111	 0	 225	 1	 1.08889	 0.93333;
	 52	 1	 69.1	 0.9	 0	 0	 1	 1.04445	 0	 225	 1	 1.08889	 1;
	 53	 1	 199.7	 12.7	 0	 0	 1	 1.04567	 0	 225	 1	 1.0869	 1.00444;
	 54	 1	 149.8	 10.6	 0	 0	 1	 1.04445	 0	 225	 1	 1.08889	 1;
	 55	 1	 64.7	-1.7	 0	 0	 1	 1.04445	 0	 225	 1	 1.08889	 1;
	 56	 1	 52.8	 5.5	 0	 0	 1	 1.01111	 0	 225	 1	 1.08889	 0.93333;
	 57	 1	 79.9	-5	 0	 0	 1	 1.04445	 0	 225	 1	 1.08889	 1;
	 58	 1	 23	-4.2	 0	 0	 1	 1.04445	 0	 225	 1	 1.08889	 1;
	 59	 1	 52.1	 5.9	 0	 0	 1	 1.04445	 0	 225	 1	 1.08889	 1;
	 60	 1	 0	 0	 0	-64	 1	 1.15	 0	 20	 1	 1.4	 0.9;
	 61	 1	 0	 0	 0	 0	 1	 1.04445	 0	 225	 1	 1.08889	 1;
	 62	 1	 0	 0	 0	 0	 1	 1.07895	 0	 380	 1	 1.10526	 1.05263;
	 63	 1	 182.2	-4.5	 0	 0	 1	 1.04445	 0	 225	 1	 1.08889	 1;
	 64	 1	 86.6	-8.2	 0	 0	 1	 1.04445	 0	 225	 1	 1.08889	 1;
	 65	 1	-11.2	-3.5	 0	 0	 1	 1.07895	 0	 380	 1	 1.10526	 1.05263;
	 66	 1	 2.9	-7.5	 0	 0	 1	 1.07895	 0	 380	 1	 1.10526	 1.05263;
	 67	 1	 0	 0	 0	 0	 1	 1.04596	 0	 225	 1	 1.09192	 1;
	 68	 1	 71.3	-22.5	 0	 0	 1	 1.04465	 0	 225	 1	 1.0893	 1;
	 69	 1	 0	 0	 0	 0	 1	 1.04445	 0	 225	 1	 1.08889	 1;
	 70	 1	 76.2	 3.8	 0	 0	 1	 1.04445	 0	 225	 1	 1.08889	 1;
	 71	 1	 98.3	-14	 0	 0	 1	 1.04445	 0	 225	 1	 1.08889	 1;
	 72	 1	 0	-0.7	 0	 0	 1	 0.83	 0	 150	 1	 1	 0.66;
	 73	 1	 27.8	-20.7	 0	 0	 1	 1.04581	 0	 225	 1	 1.09162	 1;
	 74	 1	 78.3	 11.9	 0	 0	 1	 1.07895	 0	 380	 1	 1.10526	 1.05263;
	 75	 1	 92.8	-9.9	 0	 0	 1	 1.01111	 0	 225	 1	 1.08889	 0.93333;
	 76	 1	 0	 0	 0	 0	 1	 1.04445	 0	 225	 1	 1.08889	 1;
	 77	 1	 0	 0	 0	 0	 1	 1.04445	 0	 225	 1	 1.08889	 1;
	 78	 2	 0	 0	 0	 0	 1	 1	 0	 225	 1	 1.1	 0.9;
	 79	 1	 103.4	-12.1	 0	 0	 1	 1.04445	 0	 225	 1	 1.08889	 1;
	 80	 1	 112.5	 12.8	 0	 0	 1	 1.04445	 0	 225	 1	 1.08889	 1;
	 81	 1	 0	 0	 0	 0	 1	 1.07895	 0	 380	 1	 1.10526	 1.05263;
	 82	 1	 78.8	 17.5	 0	 0	 1	 1.01111	 0	 225	 1	 1.08889	 0.93333;
	 83	 1	 109.4	-16.3	 0	 0	 1	 1.04445	 0	 225	 1	 1.08889	 1;
	 84	 1	 211.1	 3.6	 0	 0	 1	 1.01111	 0	 225	 1	 1.08889	 0.93333;
	 85	 1	 0	 0	 0	 0	 1	 1.04579	 0	 225	 1	 1.09158	 1;
	 86	 1	 55.8	-10.6	 0	 0	 1	 1.01153	 0	 225	 1	 1.08972	 0.93333;
	 87	 1	 0	 0	 0	 0	 1	 0.98753	 0	 20	 1	 1.05	 0.92505;
	 88	 1	 29.8	-7	 0	 0	 1	 1.04444	 0	 225	 1	 1.08444	 1.00444;
	 89	 1	 184.2	-16.3	 0	 0	 1	 1.07237	 0	 380	 1	 1.10263	 1.04211;
	 90	 1	 150.5	 2.4	 0	 0	 1	 1.04445	 0	 225	 1	 1.08889	 1;
	 91	 1	 76.2	 31.8	 0	 0	 1	 1.04445	 0	 225	 1	 1.08889	 1;
	 92	 1	 32.1	 9.5	 0	 0	 1	 1.01111	 0	 225	 1	 1.08889	 0.93333;
	 93	 1	 0	 0	 0	 0	 1	 1.04496	 0	 225	 1	 1.08992	 1;
	 94	 1	 75.5	-14	 0	 0	 1	 1.04574	 0	 225	 1	 1.09148	 1;
	 95	 1	 113.3	-2.7	 0	 0	 1	 1.04445	 0	 225	 1	 1.08889	 1;
	 96	 1	 76.2	 30	 0	 0	 1	 1.04444	 0	 225	 1	 1.08444	 1.00444;
	 97	 1	 0	 0	 0	 0	 1	 1.15	 0	 20	 1	 1.4	 0.9;
	 98	 1	 0	 0	 0	 0	 1	 1.15	 0	 20	 1	 1.4	 0.9;
	 99	 1	 72.3	 5.8	 0	 0	 1	 1.04445	 0	 225	 1	 1.08889	 1;
	 100	 1	 0	 0	 0	 0	 1	 1.07895	 0	 380	 1	 1.10526	 1.05263;
	 101	 1	-1.2	 2.4	 0	 0	 1	 1.01931	 0	 225	 1	 1.08861	 0.95;
	 102	 1	 0	 0	 0	 0	 1	 1.08006	 0	 380	 1	 1.1078	 1.05233;
	 103	 1	 0	 0	 0	 0	 1	 1.08003	 0	 380	 1	 1.10791	 1.05214;
	 104	 1	 0	 0	 0	 0	 1	 1.08003	 0	 380	 1	 1.10791	 1.05214;
	 105	 1	 99.3	 9.3	 0	 0	 1	 1.04444	 0	 225	 1	 1.08444	 1.00444;
	 106	 1	 81.3	-2.9	 0	 0	 1	 1.01111	 0	 225	 1	 1.08889	 0.93333;
	 107	 1	 131.9	 12.9	 0	 0	 1	 1.04445	 0	 225	 1	 1.08889	 1;
	 108	 1	 51.2	-3.1	 0	 0	 1	 1.01111	 0	 225	 1	 1.08889	 0.93333;
	 109	 1	 17.5	 27	 0	 0	 1	 1	 0	 150	 1	 1.1	 0.9;
	 110	 2	 0	 0	 0	 0	 1	 1	 0	 150	 1	 1.1	 0.9;
	 111	 2	 0	 0	 0	 0	 1	 1	 0	 150	 1	 1.1	 0.9;
	 112	 1	 76.3	 21.8	 0	 0	 1	 1.04445	 0	 225	 1	 1.08889	 1;
	 113	 1	 8.5	 0.2	 0	 0	 1	 1.04445	 0	 225	 1	 1.08889	 1;
	 114	 1	 87	-0.1	 0	 0	 1	 1.04445	 0	 225	 1	 1.08889	 1;
	 115	 1	 210.6	 25.4	 0	 0	 1	 1.04445	 0	 225	 1	 1.08889	 1;
	 116	 1	 65.1	 4.1	 0	 0	 1	 1.04445	 0	 225	 1	 1.08889	 1;
	 117	 1	 118	-7.9	 0	 0	 1	 1.07895	 0	 380	 1	 1.10526	 1.05263;
	 118	 1	 0	 0	 0	 0	 1	 1.04445	 0	 225	 1	 1.08889	 1;
	 119	 1	 293.2	 8.6	 0	 0	 1	 1.02222	 0	 90	 1	 1.06667	 0.97778;
	 120	 1	 0	 0	 0	 0	 1	 1.07237	 0	 380	 1	 1.10263	 1.04211;
	 121	 1	 0	 0	 0	 0	 1	 1.07237	 0	 380	 1	 1.10263	 1.04211;
	 122	 1	 10.9	-4.2	 0	 0	 1	 1.04445	 0	 225	 1	 1.08889	 1;
	 123	 1	 244.5	 11.4	 0	 0	 1	 1.04445	 0	 225	 1	 1.08889	 1;
	 124	 1	 17.7	 4.6	 0	 0	 1	 1.04445	 0	 225	 1	 1.08889	 1;
	 125	 1	 106.6	-8.1	 0	 0	 1	 1.04445	 0	 225	 1	 1.08889	 1;
	 126	 1	 45.6	 2.6	 0	 0	 1	 1.01111	 0	 225	 1	 1.08889	 0.93333;
	 127	 1	 59.4	-8.5	 0	 0	 1	 1.04445	 0	 225	 1	 1.08889	 1;
	 128	 1	 0	 0	 0	-64	 1	 1.15	 0	 20	 1	 1.4	 0.9;
	 129	 1	 26.7	-4.5	 0	 0	 1	 1.0457	 0	 225	 1	 1.0914	 1;
	 130	 1	 0	 0	 0	 0	 1	 1.0793	 0	 380	 1	 1.10597	 1.05263;
	 131	 1	 0	 0	 0	 0	 1	 1.01111	 0	 225	 1	 1.08889	 0.93333;
	 132	 1	 0	 0	 0	 0	 1	 1.07237	 0	 380	 1	 1.10526	 1.03947;
	 133	 1	 141	 9.4	 0	 0	 1	 1.04445	 0	 225	 1	 1.08889	 1;
	 134	 1	 0	 0	 0	 0	 1	 1.04612	 0	 225	 1	 1.09224	 1;
	 135	 1	 99.5	-9.7	 0	 0	 1	 1.04445	 0	 225	 1	 1.08889	 1;
	 136	 1	 0	 0	 0	 0	 1	 1.07895	 0	 380	 1	 1.10526	 1.05263;
	 137	 1	 54.1	-2.6	 0	 0	 1	 1.04445	 0	 225	 1	 1.08889	 1;
	 138	 1	 11.7	-13.7	 0	 0	 1	 1.01284	 0	 225	 1	 1.09235	 0.93333;
	 139	 1	 54.4	 8.5	 0	 0	 1	 1.01111	 0	 225	 1	 1.08889	 0.93333;
	 140	 1	 0.2	-3.8	 0	 0	 1	 1.04445	 0	 225	 1	 1.08889	 1;
	 141	 1	 0.3	-1.4	 0	 0	 1	 1.04445	 0	 225	 1	 1.08889	 1;
	 142	 1	 105	 19.8	 0	 0	 1	 1.04445	 0	 225	 1	 1.08889	 1;
	 143	 1	 1	 3.3	 0	 0	 1	 1.04444	 0	 225	 1	 1.08444	 1.00444;
	 144	 1	 44.3	-17.5	 0	 0	 1	 1.04445	 0	 225	 1	 1.08889	 1;
	 145	 1	 68	-5.5	 0	 0	 1	 1.04445	 0	 225	 1	 1.08889	 1;
	 146	 1	 0	 0	 0	 0	 1	 1.04574	 0	 225	 1	 1.09148	 1;
	 147	 1	 29.8	-0	 0	 0	 1	 1.04445	 0	 225	 1	 1.08889	 1;
	 148	 1	 135.5	 22.4	 0	 0	 1	 1.04445	 0	 225	 1	 1.08889	 1;
	 149	 2	 0	 0	 0	 0	 1	 1.01587	 0	 225	 1	 1.08174	 0.95;
	 150	 1	 34.8	-6.3	 0	 0	 1	 1.04445	 0	 225	 1	 1.08889	 1;
	 151	 1	 0	 0	 0	 0	 1	 1.04445	 0	 225	 1	 1.08889	 1;
	 152	 1	 0	 0	 0	 0	 1	 1.07416	 0	 380	 1	 1.10526	 1.04306;
	 153	 1	-0.6	-11.5	 0	 0	 1	 1	 0	 150	 1	 1.1	 0.9;
	 154	 1	 28.6	 2.4	 0	 0	 1	 1.04445	 0	 225	 1	 1.08889	 1;
	 155	 1	 36.3	-18	 0	 0	 1	 1.04445	 0	 225	 1	 1.08889	 1;
	 156	 1	 107.7	 13.1	 0	 0	 1	 1.04445	 0	 225	 1	 1.08889	 1;
	 157	 1	 4	-2.6	 0	 0	 1	 1.04469	 0	 225	 1	 1.08494	 1.00444;
	 158	 1	 1.4	-7.3	 0	 0	 1	 1.07237	 0	 380	 1	 1.10263	 1.04211;
	 159	 1	 54.1	-11.7	 0	 0	 1	 1.04444	 0	 225	 1	 1.08444	 1.00444;
	 160	 1	 0	 0	 0	-64	 1	 1.15	 0	 20	 1	 1.4	 0.9;
	 161	 1	 45.2	-12.6	 0	 0	 1	 1.04445	 0	 225	 1	 1.08889	 1;
	 162	 1	 0	 0	 0	 0	 1	 1.07895	 0	 380	 1	 1.10526	 1.05263;
	 163	 1	 151.5	-36.8	 0	 0	 1	 1.04445	 0	 225	 1	 1.08889	 1;
	 164	 1	 138.9	 9.2	 0	 0	 1	 1.04666	 0	 225	 1	 1.08444	 1.00889;
	 165	 1	 51.1	 14.9	 0	 0	 1	 1.01111	 0	 225	 1	 1.08889	 0.93333;
	 166	 1	 0	 0	 0	 0	 1	 1.04666	 0	 225	 1	 1.09333	 1;
	 167	 1	 0	 0	 0	 0	 1	 1.01111	 0	 225	 1	 1.08889	 0.93333;
	 168	 1	 0	 0	 0	 0	 1	 1.04666	 0	 225	 1	 1.09333	 1;
	 169	 1	 0	 0	 0	 0	 1	 1.04666	 0	 225	 1	 1.09333	 1;
	 170	 1	 0	 0	 0	 0	 1	 1.04666	 0	 225	 1	 1.09333	 1;
	 171	 1	 0	 0	 0	 0	 1	 1.04666	 0	 225	 1	 1.09333	 1;
	 172	 1	 0	 0	 0	 0	 1	 1.04666	 0	 225	 1	 1.09333	 1;
	 173	 1	 0	 0	 0	 0	 1	 1.04666	 0	 225	 1	 1.09333	 1;
	 174	 1	 0	 0	 0	 0	 1	 1.04666	 0	 225	 1	 1.09333	 1;
	 175	 1	 0	 0	 0	 0	 1	 1.04586	 0	 225	 1	 1.09172	 1;
	 176	 1	 0	 0	 0	 0	 1	 1.04666	 0	 225	 1	 1.09333	 1;
	 177	 1	 0	 0	 0	 0	 1	 1.04666	 0	 225	 1	 1.09333	 1;
	 178	 1	 0	 0	 0	 0	 1	 1.07237	 0	 380	 1	 1.10263	 1.04211;
	 179	 1	 0	 0	 0	 0	 1	 1.07237	 0	 380	 1	 1.10263	 1.04211;
	 180	 1	 0	 0	 0	 0	 1	 1	 0	 380	 1	 1.2	 0.8;
	 181	 1	 0	 0	 0	 0	 1	 1	 0	 380	 1	 1.2	 0.8;
	 182	 1	 0	 0	 0	 0	 1	 1	 0	 380	 1	 1.2	 0.8;
	 183	 1	 0.2	 69.7	 0	 0	 1	 1.07237	 0	 380	 1	 1.10263	 1.04211;
	 184	 1	 0	 0	 0	 0	 1	 1	 0	 380	 1	 1.2	 0.8;
	 185	 1	 0	 0	 0	 0	 1	 1.07237	 0	 380	 1	 1.10263	 1.04211;
	 186	 1	 0	 0	 0	 0	 1	 1	 0	 380	 1	 1.2	 0.8;
	 187	 1	 0	 0	 0	 0	 1	 1	 0	 380	 1	 1.2	 0.8;
	 188	 1	 0	 0	 0	 0	 1	 1	 0	 380	 1	 1.2	 0.8;
	 189	 1	 0	 0	 0	 0	 1	 1	 0	 380	 1	 1.2	 0.8;
	 190	 1	 0	 0	 0	 0	 1	 1	 0	 380	 1	 1.2	 0.8;
	 191	 1	 0	 0	 0	 0	 1	 1.07237	 0	 380	 1	 1.10526	 1.03947;
	 192	 2	 0	 0	 0	 0	 1	 1.00776	 0	 10	 1	 1.13096	 0.88456;
	 193	 2	 37	 16	 0	 0	 1	 1.00135	 0	 24	 1	 1.05271	 0.95;
	 194	 2	 40.1	 16	 0	 0	 1	 1.00053	 0	 24	 1	 1.05105	 0.95;
	 195	 2	 37	 16	 0	 0	 1	 1.00053	 0	 24	 1	 1.05106	 0.95;
	 196	 2	 37	 16	 0	 0	 1	 1	 0	 24	 1	 1.05	 0.95;
	 197	 2	 0	 0	 0	 0	 1	 1	 0	 20	 1	 1.05	 0.95;
	 198	 2	 0	 0	 0	 0	 1	 1	 0	 20	 1	 1.05	 0.95;
	 199	 2	 0	 0	 0	 0	 1	 1	 0	 11	 1	 1.1	 0.9;
	 200	 2	 0	 0	 0	 0	 1	 1	 0	 20	 1	 1.05	 0.95;
...
];

mpc_regionR2.gen = [
%	bus         Pg          Qg          Qmax        Qmin        Vg          mBase       status      Pmax        Pmin        Pc1         Pc2         Qc1min      Qc1max      Qc2min      Qc2max      ramp_agc    ramp_10     ramp_30     ramp_q      apf         
	 101	 33.24	 0	 0	 0	 1.019305	 100	 1	 55.4	 11.08;
	 111	 25.2	 2.5	 25	-20	 1	 100	 1	 42	 8.4;
	 111	 25.2	 2.5	 25	-20	 1	 100	 1	 42	 8.4;
	 149	 52.2	 0.87	 26.1	-24.36	 1.01587	 100	 1	 87	 17.4;
	 39	 24.84	 0.415	 12.42	-11.59	 1.01705	 100	 1	 41.4	 8.28;
	 78	 12.6	 0	 8	-8	 1	 100	 1	 21	 4.2;
	 110	 16.2	 3.5	 10	-3	 1	 100	 1	 27	 5.4;
	 110	 16.2	 3.5	 10	-3	 1	 100	 1	 27	 5.4;
	 38	 37.2	 0	 40	-40	 1	 100	 1	 62	 12.4;
	 192	 16.2	 4.62	 24.62	-15.38	 1.0077585	 100	 1	 27	 5.4;
	 193	 600.075	 22.385	 421.39	-376.62	 1.001355	 100	 1	 945.08	 255.07;
	 194	 633.045	 29.81	 428.83	-369.21	 1.000525	 100	 1	 978.04	 288.05;
	 195	 616.08	 29.075	 428.07	-369.92	 1.00053	 100	 1	 976.08	 256.08;
	 196	 598.075	 21.865	 420.86	-377.13	 1	 100	 1	 943.08	 253.07;
	 197	 948	 28.58	 409.45	-352.29	 1	 100	 1	 1498	 398;
	 198	 948	 28.545	 409.42	-352.33	 1	 100	 1	 1498	 398;
	 199	 19.2	 0.32	 10.32	-9.68	 1	 100	 1	 32	 6.4;
	 200	 798	 87.935	 615.09	-439.22	 1	 100	 1	 1308	 288;
	 201	 798	 87.48	 614.63	-439.67	 1.001985	 100	 1	 1308	 288;
	 202	 11.4	 1.15	 11.15	-8.85	 0.9740405	 100	 1	 19	 3.8;
	 203	 310.9	 14.29	 198.93	-170.35	 1	 100	 1	 419.9	 201.9;
	 204	 136.2	 37.94	 163.7	-87.82	 1	 100	 1	 227	 45.4;
	 205	 136.2	 54.21	 179.99	-71.57	 1	 100	 1	 227	 45.4;
	 206	 136.2	 31.98	 157.76	-93.8	 1	 100	 1	 227	 45.4;
	 207	 136.2	 32.315	 158.1	-93.47	 1	 100	 1	 227	 45.4;
	 208	 22.8	 0.95	 1	 0.9	 1	 100	 1	 38	 7.6;
];

mpc_regionR2.branch = [
%	fbus        tbus        r           x           b           rateA       rateB       rateC       ratio       angle       status      angmin      angmax      
	 77	 1	 0.001521	 0.007076	 0.0118	 302	 302	 302	 0	 0	 1	-30	 30;
	 154	 1	 0.002469	 0.011457	 0.0203	 315	 315	 315	 0	 0	 1	-30	 30;
	 48	 2	 0.012978	 0.059338	 0.1002	 409	 409	 409	 0	 0	 1	-30	 30;
	 94	 2	 0.01197	 0.056632	 0.0942	 262	 262	 262	 0	 0	 1	-30	 30;
	 154	 3	 0.00324	 0.012616	 0.0225	 302	 302	 302	 0	 0	 1	-30	 30;
	 29	 4	 0.001171	 0.007842	 0.0166	 296	 296	 296	 0	 0	 1	-30	 30;
	 99	 4	 0.002212	 0.014979	 0.0388	 401	 401	 401	 0	 0	 1	-30	 30;
	 140	 5	 0.000691	 0.002588	 0.1691	 11556	 11556	 11556	 0	 0	 1	-30	 30;
	 141	 5	 0.000691	 0.002588	 0.1509	 11556	 11556	 11556	 0	 0	 1	-30	 30;
	 62	 6	 0.001627	 0.014855	 0.3899	 1717	 1717	 1717	 0	 0	 1	-30	 30;
	 62	 6	 0.001676	 0.013899	 0.4216	 1711	 1711	 1711	 0	 0	 1	-30	 30;
	 55	 7	 0.003081	 0.020286	 0.0365	 420	 420	 420	 0	 0	 1	-30	 30;
	 107	 7	 0.00241	 0.01603	 0.0294	 440	 440	 440	 0	 0	 1	-30	 30;
	 155	 8	 0.000176	 0.001385	 0.1521	 378	 378	 378	 0	 0	 1	-30	 30;
	 161	 8	 0.001817	 0.012642	 0.0233	 440	 440	 440	 0	 0	 1	-30	 30;
	 161	 8	 0.001865	 0.012502	 0.0229	 502	 502	 502	 0	 0	 1	-30	 30;
	 135	 9	 0.001817	 0.012049	 0.0233	 439	 439	 439	 0	 0	 1	-30	 30;
	 13	 10	 0.002291	 0.009936	 0.0304	 307	 307	 307	 0	 0	 1	-30	 30;
	 108	 10	 0.004168	 0.028918	 0.0597	 389	 389	 389	 0	 0	 1	-30	 30;
	 131	 10	 0.002054	 0.024691	 0.1276	 584	 584	 584	 0	 0	 1	-30	 30;
	 139	 10	 0.004879	 0.032533	 0.0607	 344	 344	 344	 0	 0	 1	-30	 30;
	 165	 10	 0.005294	 0.036998	 0.0668	 428	 428	 428	 0	 0	 1	-30	 30;
	 167	 10	 0.001422	 0.009896	 0.0172	 428	 428	 428	 0	 0	 1	-30	 30;
	 89	 11	 0.002479	 0.028151	 0.6296	 1128	 1128	 1128	 0	 0	 1	-30	 30;
	 132	 11	 0.00072	 0.00946	 0.3263	 1382	 1382	 1382	 0	 0	 1	-30	 30;
	 89	 11	 0.002486	 0.028165	 0.6296	 1127	 1127	 1127	 0	 0	 1	-30	 30;
	 99	 12	 0.000521	 0.002315	 0.019	 13045	 13045	 13045	 0	 0	 1	-30	 30;
	 23	 14	 9.9e-05	 0.000198	 0.0223	 288	 288	 288	 0	 0	 1	-30	 30;
	 24	 18	 1.4e-05	 0.000145	 0.0029	 1382	 1382	 1382	 0	 0	 1	-30	 30;
	 24	 15	 7e-06	 0.000159	 0.0029	 1382	 1382	 1382	 0	 0	 1	-30	 30;
	 24	 16	 1.4e-05	 0.000166	 0.0058	 1737	 1737	 1737	 0	 0	 1	-30	 30;
	 24	 17	 1.4e-05	 0.00018	 0.0058	 1382	 1382	 1382	 0	 0	 1	-30	 30;
	 94	 19	 0.002145	 0.009679	 0.017	 296	 296	 296	 0	 0	 1	-30	 30;
	 94	 20	 0.002125	 0.009576	 0.0168	 296	 296	 296	 0	 0	 1	-30	 30;
	 54	 21	 0.000691	 0.001383	 0.2045	 20021	 20021	 20021	 0	 0	 1	-30	 30;
	 29	 22	 0.000514	 0.001541	 0.1144	 19054	 19054	 19054	 0	 0	 1	-30	 30;
	 100	 24	 0.000637	 0.008255	 0.2123	 1579	 1579	 1579	 0	 0	 1	-30	 30;
	 121	 24	 0.000688	 0.009993	 0.257	 2368	 2368	 2368	 0	 0	 1	-30	 30;
	 42	 24	 0.000443	 0.006454	 0.1675	 2368	 2368	 2368	 0	 0	 1	-30	 30;
	 120	 24	 0.000688	 0.009993	 0.257	 2368	 2368	 2368	 0	 0	 1	-30	 30;
	 42	 24	 0.000464	 0.006766	 0.1762	 2368	 2368	 2368	 0	 0	 1	-30	 30;
	 42	 24	 0.000464	 0.006773	 0.1762	 2368	 2368	 2368	 0	 0	 1	-30	 30;
	 114	 25	 0.001934	 0.01293	 0.024	 428	 428	 428	 0	 0	 1	-30	 30;
	 161	 25	 0.004642	 0.03089	 0.0573	 428	 428	 428	 0	 0	 1	-30	 30;
	 64	 27	 0.01438	 0.065067	 0.1154	 328	 328	 328	 0	 0	 1	-30	 30;
	 94	 27	 0.003538	 0.016484	 0.0273	 325	 325	 325	 0	 0	 1	-30	 30;
	 122	 27	 0.012634	 0.056573	 0.1008	 328	 328	 328	 0	 0	 1	-30	 30;
	 169	 27	 0.003516	 0.016158	 0.0273	 328	 328	 328	 0	 0	 1	-30	 30;
	 170	 27	 0.00316	 0.014914	 0.0253	 305	 305	 305	 0	 0	 1	-30	 30;
	 177	 27	 0.007704	 0.034647	 0.0607	 328	 328	 328	 0	 0	 1	-30	 30;
	 94	 27	 0.002489	 0.016257	 0.0294	 418	 418	 418	 0	 0	 1	-30	 30;
	 32	 27	 0.003457	 0.015467	 0.0273	 309	 309	 309	 0	 0	 1	-30	 30;
	 89	 28	 0.006579	 0.049467	 1.0137	 639	 639	 639	 0	 0	 1	-30	 30;
	 130	 28	 0.001357	 0.014821	 0.3321	 1171	 1171	 1171	 0	 0	 1	-30	 30;
	 115	 29	 0.001636	 0.010939	 0.0216	 296	 296	 296	 0	 0	 1	-30	 30;
	 143	 30	 0.001541	 0.009936	 0.0258	 3054	 3054	 3054	 0	 0	 1	-30	 30;
	 157	 30	 0.008375	 0.039704	 0.0658	 274	 274	 274	 0	 0	 1	-30	 30;
	 169	 31	 7.9e-05	 0.000316	 0.001	 328	 328	 328	 0	 0	 1	-30	 30;
	 99	 33	 0.004514	 0.029863	 0.1096	 439	 439	 439	 0	 0	 1	-30	 30;
	 158	 35	 1.4e-05	 0.000208	 0.0058	 2487	 2487	 2487	 0	 0	 1	-30	 30;
	 158	 34	 2.1e-05	 0.000242	 0.0087	 2487	 2487	 2487	 0	 0	 1	-30	 30;
	 44	 36	 0.003477	 0.023249	 0.0425	 416	 416	 416	 0	 0	 1	-30	 30;
	 71	 36	 0.006341	 0.042232	 0.078	 415	 415	 415	 0	 0	 1	-30	 30;
	 165	 37	 0.002133	 0.014756	 0.0294	 2077	 2077	 2077	 0	 0	 1	-30	 30;
	 168	 38	 0.000158	 0.000691	 0.001	 274	 274	 274	 0	 0	 1	-30	 30;
	 101	 39	 0.002544	 0.02015	 0.0348	 561	 561	 561	 0	 0	 1	-30	 30;
	 147	 39	 0.003727	 0.028836	 0.0527	 562	 562	 562	 0	 0	 1	-30	 30;
	 64	 40	 0.000138	 0.000573	 0.001	 329	 329	 329	 0	 0	 1	-30	 30;
	 70	 41	 0.003911	 0.027062	 0.0486	 438	 438	 438	 0	 0	 1	-30	 30;
	 99	 41	 0.000711	 0.006894	 0.0223	 865	 865	 865	 0	 0	 1	-30	 30;
	 105	 41	 0.007012	 0.030617	 0.0511	 455	 455	 455	 0	 0	 1	-30	 30;
	 156	 41	 0.007639	 0.051542	 0.2291	 502	 502	 502	 0	 0	 1	-30	 30;
	 45	 42	 0.002597	 0.034127	 1.1812	 932	 932	 932	 0	 0	 1	-30	 30;
	 117	 42	 0.002999	 0.033656	 0.6729	 944	 944	 944	 0	 0	 1	-30	 30;
	 136	 42	 0.001302	 0.013172	 0.3408	 1727	 1727	 1727	 0	 0	 1	-30	 30;
	 45	 42	 0.002597	 0.034127	 1.1783	 932	 932	 932	 0	 0	 1	-30	 30;
	 100	 42	 0.000256	 0.002701	 0.0693	 1579	 1579	 1579	 0	 0	 1	-30	 30;
	 136	 42	 0.001309	 0.013255	 0.3437	 1727	 1727	 1727	 0	 0	 1	-30	 30;
	 156	 43	 0.008122	 0.036857	 0.0655	 329	 329	 329	 0	 0	 1	-30	 30;
	 163	 43	 0.011081	 0.049936	 0.0891	 265	 265	 265	 0	 0	 1	-30	 30;
	 163	 44	 0.005223	 0.034671	 0.076	 428	 428	 428	 0	 0	 1	-30	 30;
	 65	 45	 2.1e-05	 0.000301	 0.0116	 2176	 2176	 2176	 0	 0	 1	-30	 30;
	 81	 45	 0.000697	 0.009107	 0.3114	 2487	 2487	 2487	 0	 0	 1	-30	 30;
	 66	 45	 1.9e-05	 0.00028	 0.0108	 2176	 2176	 2176	 0	 0	 1	-30	 30;
	 162	 45	 0.001244	 0.016445	 0.5652	 1934	 1934	 1934	 0	 0	 1	-30	 30;
	 52	 46	 0.005096	 0.033837	 0.0628	 428	 428	 428	 0	 0	 1	-30	 30;
	 169	 46	 0.005057	 0.030084	 0.0567	 430	 430	 430	 0	 0	 1	-30	 30;
	 88	 48	 0.028721	 0.081007	 0.1357	 358	 358	 358	 0	 0	 1	-30	 30;
	 91	 48	 0.012247	 0.062222	 0.1073	 414	 414	 414	 0	 0	 1	-30	 30;
	 96	 48	 0.009067	 0.042884	 0.0861	 348	 348	 348	 0	 0	 1	-30	 30;
	 106	 48	 0.020602	 0.068109	 0.1083	 258	 258	 258	 0	 0	 1	-30	 30;
	 144	 48	 0.008158	 0.03516	 0.0582	 379	 379	 379	 0	 0	 1	-30	 30;
	 157	 48	 0.016612	 0.078676	 0.1316	 293	 293	 293	 0	 0	 1	-30	 30;
	 94	 48	 0.023407	 0.110815	 0.1853	 274	 274	 274	 0	 0	 1	-30	 30;
	 89	 49	 0.001898	 0.021337	 0.4245	 1482	 1482	 1482	 0	 0	 1	-30	 30;
	 117	 49	 0.001828	 0.020533	 0.4101	 1546	 1546	 1546	 0	 0	 1	-30	 30;
	 158	 49	 0.001053	 0.013843	 0.4765	 2287	 2287	 2287	 0	 0	 1	-30	 30;
	 158	 49	 0.001053	 0.01383	 0.4765	 2289	 2289	 2289	 0	 0	 1	-30	 30;
	 170	 50	 9.9e-05	 0.000454	 0.001	 262	 262	 262	 0	 0	 1	-30	 30;
	 75	 51	 0.005669	 0.026094	 0.0476	 321	 321	 321	 0	 0	 1	-30	 30;
	 165	 51	 0.001719	 0.01199	 0.0213	 428	 428	 428	 0	 0	 1	-30	 30;
	 150	 52	 0.004913	 0.032622	 0.0608	 416	 416	 416	 0	 0	 1	-30	 30;
	 99	 53	 0.010943	 0.072652	 0.1347	 421	 421	 421	 0	 0	 1	-30	 30;
	 105	 53	 0.014775	 0.052267	 0.083	 568	 568	 568	 0	 0	 1	-30	 30;
	 133	 53	 0.015921	 0.072375	 0.1281	 329	 329	 329	 0	 0	 1	-30	 30;
	 99	 54	 0.002975	 0.019475	 0.0504	 444	 444	 444	 0	 0	 1	-30	 30;
	 115	 54	 0.002627	 0.017975	 0.0324	 416	 416	 416	 0	 0	 1	-30	 30;
	 99	 54	 0.002993	 0.019532	 0.0472	 444	 444	 444	 0	 0	 1	-30	 30;
	 148	 55	 0.002923	 0.020543	 0.0365	 422	 422	 422	 0	 0	 1	-30	 30;
	 126	 56	 0.005965	 0.039901	 0.0739	 344	 344	 344	 0	 0	 1	-30	 30;
	 167	 56	 0.000889	 0.006104	 0.0111	 428	 428	 428	 0	 0	 1	-30	 30;
	 151	 57	 0.002953	 0.019787	 0.0363	 440	 440	 440	 0	 0	 1	-30	 30;
	 151	 57	 0.002963	 0.019733	 0.0365	 440	 440	 440	 0	 0	 1	-30	 30;
	 147	 58	 0.018712	 0.063684	 0.1073	 467	 467	 467	 0	 0	 1	-30	 30;
	 164	 58	 0.01297	 0.04896	 0.079	 610	 610	 610	 0	 0	 1	-30	 30;
	 170	 59	 0.002765	 0.012998	 0.0213	 305	 305	 305	 0	 0	 1	-30	 30;
	 83	 61	 0.001622	 0.010949	 0.0816	 420	 420	 420	 0	 0	 1	-30	 30;
	 95	 61	 0.004361	 0.019407	 0.0346	 413	 413	 413	 0	 0	 1	-30	 30;
	 148	 61	 0.00644	 0.043615	 0.081	 537	 537	 537	 0	 0	 1	-30	 30;
	 95	 61	 0.002884	 0.019127	 0.0357	 537	 537	 537	 0	 0	 1	-30	 30;
	 130	 62	 0.003553	 0.040406	 0.8776	 787	 787	 787	 0	 0	 1	-30	 30;
	 152	 62	 0.001413	 0.020512	 0.5314	 1552	 1552	 1552	 0	 0	 1	-30	 30;
	 162	 62	 0.002029	 0.020568	 0.5372	 1543	 1543	 1543	 0	 0	 1	-30	 30;
	 74	 62	 0.001233	 0.012465	 0.3235	 1579	 1579	 1579	 0	 0	 1	-30	 30;
	 152	 62	 0.00141	 0.019927	 0.5463	 1597	 1597	 1597	 0	 0	 1	-30	 30;
	 80	 63	 0.003259	 0.021669	 0.0405	 502	 502	 502	 0	 0	 1	-30	 30;
	 80	 63	 0.00324	 0.021768	 0.0395	 502	 502	 502	 0	 0	 1	-30	 30;
	 129	 64	 0.009264	 0.038696	 0.0638	 309	 309	 309	 0	 0	 1	-30	 30;
	 147	 64	 0.022084	 0.061906	 0.1013	 471	 471	 471	 0	 0	 1	-30	 30;
	 163	 64	 0.017185	 0.07921	 0.1336	 336	 336	 336	 0	 0	 1	-30	 30;
	 172	 67	 0.00237	 0.005748	 0.0111	 5016	 5016	 5016	 0	 0	 1	-30	 30;
	 147	 68	 0.011556	 0.052998	 0.0942	 384	 384	 384	 0	 0	 1	-30	 30;
	 161	 68	 0.011299	 0.057086	 0.1013	 336	 336	 336	 0	 0	 1	-30	 30;
	 171	 69	 0.001237	 0.005636	 0.0256	 265	 265	 265	 0	 0	 1	-30	 30;
	 71	 70	 0.005195	 0.034528	 0.0648	 416	 416	 416	 0	 0	 1	-30	 30;
	 173	 73	 0.001402	 0.005452	 0.0101	 346	 346	 346	 0	 0	 1	-30	 30;
	 162	 74	 0.00081	 0.008193	 0.2108	 1694	 1694	 1694	 0	 0	 1	-30	 30;
	 82	 75	 0.002528	 0.016731	 0.0304	 469	 469	 469	 0	 0	 1	-30	 30;
	 92	 75	 4.8e-05	 8.8e-05	 0.0051	 308785	 308785	 308785	 0	 0	 1	-30	 30;
	 171	 76	 0.00019	 0.00062	 0.001	 48031	 48031	 48031	 0	 0	 1	-30	 30;
	 172	 78	 2e-05	 0.000198	 0.001	 438	 438	 438	 0	 0	 1	-30	 30;
	 80	 79	 0.004484	 0.021195	 0.0365	 376	 376	 376	 0	 0	 1	-30	 30;
	 123	 79	 0.00324	 0.014894	 0.0243	 376	 376	 376	 0	 0	 1	-30	 30;
	 163	 80	 0.00403	 0.018054	 0.0349	 336	 336	 336	 0	 0	 1	-30	 30;
	 163	 80	 0.004484	 0.021156	 0.0365	 331	 331	 331	 0	 0	 1	-30	 30;
	 162	 81	 0.000557	 0.007335	 0.2533	 2487	 2487	 2487	 0	 0	 1	-30	 30;
	 131	 82	 0.001244	 0.008296	 0.0142	 483	 483	 483	 0	 0	 1	-30	 30;
	 148	 83	 0.003279	 0.022637	 0.0415	 541	 541	 541	 0	 0	 1	-30	 30;
	 131	 84	 0.000701	 0.004599	 0.0082	 484	 484	 484	 0	 0	 1	-30	 30;
	 131	 84	 0.000705	 0.00463	 0.0083	 484	 484	 484	 0	 0	 1	-30	 30;
	 94	 85	 0.000138	 0.000593	 0	 321	 321	 321	 0	 0	 1	-30	 30;
	 129	 86	 0.009541	 0.039585	 0.0648	 252	 252	 252	 0	 0	 1	-30	 30;
	 96	 88	 0.014914	 0.055309	 0.0896	 536	 536	 536	 0	 0	 1	-30	 30;
	 159	 88	 0.009383	 0.042607	 0.0759	 276	 276	 276	 0	 0	 1	-30	 30;
	 115	 90	 0.003737	 0.024798	 0.0456	 438	 438	 438	 0	 0	 1	-30	 30;
	 166	 90	 0.000869	 0.005886	 0.0415	 440	 440	 440	 0	 0	 1	-30	 30;
	 122	 91	 0.00528	 0.029102	 0.0496	 335	 335	 335	 0	 0	 1	-30	 30;
	 173	 93	 0.000158	 0.000652	 0.001	 346	 346	 346	 0	 0	 1	-30	 30;
	 129	 94	 0.014262	 0.067397	 0.1124	 319	 319	 319	 0	 0	 1	-30	 30;
	 144	 94	 0.021077	 0.088869	 0.1468	 301	 301	 301	 0	 0	 1	-30	 30;
	 146	 94	 0.00016	 0.000755	 0.0013	 321	 321	 321	 0	 0	 1	-30	 30;
	 136	 100	 0.001101	 0.012181	 0.2599	 1579	 1579	 1579	 0	 0	 1	-30	 30;
	 148	 101	 0.003356	 0.026424	 0.0458	 584	 584	 584	 0	 0	 1	-30	 30;
	 104	 102	 2.1e-05	 0.000127	 0.1141	 1092	 1092	 1092	 0	 0	 1	-30	 30;
	 130	 102	 0.000111	 0.001932	 0.0289	 1382	 1382	 1382	 0	 0	 1	-30	 30;
	 103	 102	 2.1e-05	 0.000127	 0.1155	 1053	 1053	 1053	 0	 0	 1	-30	 30;
	 108	 106	 0.003461	 0.013896	 0.0243	 307	 307	 307	 0	 0	 1	-30	 30;
	 116	 107	 0.001462	 0.006677	 0.1488	 420	 420	 420	 0	 0	 1	-30	 30;
	 151	 107	 0.001231	 0.008198	 0.0587	 440	 440	 440	 0	 0	 1	-30	 30;
	 174	 107	 0.000865	 0.005772	 0.0101	 436	 436	 436	 0	 0	 1	-30	 30;
	 151	 107	 0.002588	 0.015862	 0.0304	 422	 422	 422	 0	 0	 1	-30	 30;
	 110	 109	 0.029978	 0.100778	 0.0366	 301	 301	 301	 0	 0	 1	-30	 30;
	 111	 110	 0.024307	 0.078747	 0.0251	 384	 384	 384	 0	 0	 1	-30	 30;
	 153	 111	 0.020569	 0.065387	 0.0217	 461	 461	 461	 0	 0	 1	-30	 30;
	 129	 112	 0.005798	 0.039696	 0.0724	 420	 420	 420	 0	 0	 1	-30	 30;
	 176	 112	 0.004938	 0.033165	 0.0607	 440	 440	 440	 0	 0	 1	-30	 30;
	 147	 114	 0.007723	 0.044444	 0.082	 472	 472	 472	 0	 0	 1	-30	 30;
	 135	 115	 0.002438	 0.016458	 0.0314	 416	 416	 416	 0	 0	 1	-30	 30;
	 135	 115	 0.00243	 0.016454	 0.0319	 416	 416	 416	 0	 0	 1	-30	 30;
	 137	 116	 0.000356	 0.001422	 0	 368	 368	 368	 0	 0	 1	-30	 30;
	 147	 118	 0.000277	 0.002588	 0.0051	 584	 584	 584	 0	 0	 1	-30	 30;
	 113	 123	 0.001059	 0.003597	 0.0458	 300	 300	 300	 0	 0	 1	-30	 30;
	 127	 123	 0.009699	 0.044839	 0.0749	 331	 331	 331	 0	 0	 1	-30	 30;
	 145	 123	 0.001426	 0.009276	 0.0292	 366	 366	 366	 0	 0	 1	-30	 30;
	 154	 123	 0.014143	 0.064395	 0.1134	 470	 470	 470	 0	 0	 1	-30	 30;
	 161	 123	 0.003502	 0.02318	 0.0547	 366	 366	 366	 0	 0	 1	-30	 30;
	 161	 123	 0.004543	 0.024889	 0.0435	 321	 321	 321	 0	 0	 1	-30	 30;
	 174	 124	 2e-05	 9.8e-05	 0	 440	 440	 440	 0	 0	 1	-30	 30;
	 151	 125	 0.001351	 0.008986	 0.0303	 405	 405	 405	 0	 0	 1	-30	 30;
	 154	 127	 0.006499	 0.029472	 0.0506	 301	 301	 301	 0	 0	 1	-30	 30;
	 138	 129	 0.009936	 0.040059	 0.0658	 264	 264	 264	 0	 0	 1	-30	 30;
	 168	 129	 0.001679	 0.011062	 0.0203	 438	 438	 438	 0	 0	 1	-30	 30;
	 171	 129	 0.004958	 0.022716	 0.0395	 265	 265	 265	 0	 0	 1	-30	 30;
	 175	 129	 0.000178	 0.00077	 0.5083	 271	 271	 271	 0	 0	 1	-30	 30;
	 156	 133	 0.008332	 0.037879	 0.0663	 264	 264	 264	 0	 0	 1	-30	 30;
	 175	 134	 0.001264	 0.005136	 0.0091	 271	 271	 271	 0	 0	 1	-30	 30;
	 175	 134	 0.001264	 0.005136	 0.0091	 271	 271	 271	 0	 0	 1	-30	 30;
	 166	 135	 0.001817	 0.012089	 0.0223	 440	 440	 440	 0	 0	 1	-30	 30;
	 151	 137	 0.003818	 0.024421	 0.1136	 366	 366	 366	 0	 0	 1	-30	 30;
	 174	 142	 0.004454	 0.01571	 0.0253	 257	 257	 257	 0	 0	 1	-30	 30;
...
];

mpc_regionR2.gencost = [
%	2           startup     shutdown    n           c(n-1)...c0 
	 2	 0	 0	 3	 0	 30.601438	 0;
	 2	 0	 0	 3	 0	 42.569564	 0;
	 2	 0	 0	 3	 0	 22.993553	 0;
	 2	 0	 0	 3	 0	 45.335599	 0;
	 2	 0	 0	 3	 0	 43.154786	 0;
	 2	 0	 0	 3	 0	 29.811093	 0;
	 2	 0	 0	 3	 0	 120.918113	 0;
	 2	 0	 0	 3	 0	 24.962467	 0;
	 2	 0	 0	 3	 0	 32.09503	 0;
	 2	 0	 0	 3	 0	 29.420074	 0;
	 2	 0	 0	 3	 0	 6.450082	 0;
	 2	 0	 0	 3	 0	 24.823632	 0;
	 2	 0	 0	 3	 0	 30.414781	 0;
	 2	 0	 0	 3	 0	 31.215842	 0;
	 2	 0	 0	 3	 0	 27.545621	 0;
	 2	 0	 0	 3	 0	 33.616738	 0;
	 2	 0	 0	 3	 0	 112.501633	 0;
	 2	 0	 0	 3	 0	 27.980534	 0;
	 2	 0	 0	 3	 0	 30.408853	 0;
	 2	 0	 0	 3	 0	 40.046977	 0;
	 2	 0	 0	 3	 0	 38.215423	 0;
	 2	 0	 0	 3	 0	 21.265771	 0;
	 2	 0	 0	 3	 0	 24.386048	 0;
	 2	 0	 0	 3	 0	 39.433826	 0;
	 2	 0	 0	 3	 0	 19.551393	 0;
	 2	 0	 0	 3	 0	 30.123945	 0;
];


% -------------------- mpc_regionR3 --------------------

mpc_regionR3.version = '2';
mpc_regionR3.baseMVA = 100.0000;
mpc_regionR3.bus = [
%	bus_i       type        Pd          Qd          Gs          Bs          area        Vm          Va          baseKV      zone        Vmax        Vmin        
	 1	 1	 142.5	-13.4	 0	 0	 1	 1.04444	 0	 225	 1	 1.08444	 1.00444;
	 2	 1	 211.6	-1.3	 0	 0	 1	 1.0447	 0	 225	 1	 1.08496	 1.00444;
	 3	 1	 109.6	-12.9	 0	 0	 1	 1.04666	 0	 225	 1	 1.08889	 1.00444;
	 4	 1	 0	 0	 0	 0	 1	 1.04444	 0	 225	 1	 1.08444	 1.00444;
	 5	 1	 0	 0	 0	 0	 1	 1.07237	 0	 380	 1	 1.10263	 1.04211;
	 6	 1	 94.6	-1.9	 0	 0	 1	 1.04444	 0	 225	 1	 1.08444	 1.00444;
	 7	 1	 123.6	-19.8	 0	 0	 1	 1.04444	 0	 225	 1	 1.08444	 1.00444;
	 8	 1	 165.2	-11.8	 0	 0	 1	 1.04444	 0	 225	 1	 1.08444	 1.00444;
	 9	 1	 0	 0	 0	 0	 1	 1.04444	 0	 225	 1	 1.08444	 1.00444;
	 10	 1	 0	 0	 0	 0	 1	 1.04444	 0	 225	 1	 1.08444	 1.00444;
	 11	 1	 0	 0	 0	 0	 1	 1.04444	 0	 225	 1	 1.08444	 1.00444;
	 12	 1	 55.3	-11.4	 0	 0	 1	 1.04444	 0	 225	 1	 1.08444	 1.00444;
	 13	 1	 65.8	 19.1	 0	 0	 1	 1.04444	 0	 225	 1	 1.08444	 1.00444;
	 14	 1	 57.5	 10.2	 0	 0	 1	 1.04444	 0	 225	 1	 1.08444	 1.00444;
	 15	 1	 177.4	-31.4	 0	 0	 1	 1.04444	 0	 225	 1	 1.08444	 1.00444;
	 16	 1	 171.1	 24.7	 0	 0	 1	 1.04444	 0	 225	 1	 1.08444	 1.00444;
	 17	 1	 39.3	 5.6	 0	 0	 1	 1.04666	 0	 225	 1	 1.08889	 1.00444;
	 18	 1	 0	 0	 0	 0	 1	 1.04444	 0	 225	 1	 1.08444	 1.00444;
	 19	 1	 0	 0	 0	 0	 1	 1.07237	 0	 380	 1	 1.10263	 1.04211;
	 20	 1	 91.4	-3.2	 0	 0	 1	 1.04444	 0	 225	 1	 1.08444	 1.00444;
	 21	 1	 0	 0	 0	 0	 1	 1.07237	 0	 380	 1	 1.10263	 1.04211;
	 22	 1	 0	 0	 0	 0	 1	 1.07237	 0	 380	 1	 1.10263	 1.04211;
	 23	 1	 203.1	 3.9	 0	 0	 1	 1.07237	 0	 380	 1	 1.10263	 1.04211;
	 24	 1	 160.9	 1.6	 0	 0	 1	 1.04444	 0	 225	 1	 1.08444	 1.00444;
	 25	 1	 0	 0	 0	 0	 1	 1.07237	 0	 380	 1	 1.10263	 1.04211;
	 26	 1	 0	 0	 0	 0	 1	 1.07237	 0	 380	 1	 1.10263	 1.04211;
	 27	 1	 0	 0	 0	 0	 1	 1.07237	 0	 380	 1	 1.10263	 1.04211;
	 28	 1	 184.2	-18.9	 0	 0	 1	 1.04444	 0	 225	 1	 1.08444	 1.00444;
	 29	 1	 91.6	 8.9	 0	 0	 1	 1.0451	 0	 225	 1	 1.08576	 1.00444;
	 30	 1	 91.8	-15.3	 0	 0	 1	 1.04444	 0	 225	 1	 1.08444	 1.00444;
	 31	 1	 218.9	-21.9	 0	 0	 1	 1.04444	 0	 225	 1	 1.08444	 1.00444;
	 32	 1	-0	-0	 0	 0	 1	 1.04444	 0	 225	 1	 1.08444	 1.00444;
	 33	 1	-0.6	 6.7	 0	 0	 1	 1.04444	 0	 225	 1	 1.08444	 1.00444;
	 34	 1	-0.8	 0.3	 0	 0	 1	 1.04444	 0	 225	 1	 1.08444	 1.00444;
	 35	 1	-1.5	 2.5	 0	 0	 1	 1.07237	 0	 380	 1	 1.10263	 1.04211;
	 36	 1	-1.7	 0.4	 0	 0	 1	 1.04444	 0	 225	 1	 1.08444	 1.00444;
	 37	 1	 0	 0	 0	 0	 1	 1.07237	 0	 380	 1	 1.10263	 1.04211;
	 38	 1	 54	-15.6	 0	 0	 1	 1.04531	 0	 225	 1	 1.08618	 1.00444;
	 39	 1	 103.5	-2.1	 0	 0	 1	 1.04446	 0	 225	 1	 1.08449	 1.00444;
	 40	 1	 0	 0	 0	 0	 1	 1.04444	 0	 225	 1	 1.08444	 1.00444;
	 41	 1	 110	-8	 0	 0	 1	 1.04444	 0	 225	 1	 1.08444	 1.00444;
	 42	 1	 0	 0	 0	 0	 1	 1.07237	 0	 380	 1	 1.10263	 1.04211;
	 43	 1	 59.2	-11	 0	 0	 1	 1.04444	 0	 225	 1	 1.08444	 1.00444;
	 44	 1	 0	 0	 0	-64	 1	 1.02064	 0	 20	 1	 1.05	 0.99128;
	 45	 1	 84.4	-24.6	 0	 0	 1	 1.04444	 0	 225	 1	 1.08444	 1.00444;
	 46	 1	 91.2	 6.1	 0	 0	 1	 1.07237	 0	 380	 1	 1.10263	 1.04211;
	 47	 1	 25.8	 1.1	 0	 0	 1	 1.04444	 0	 225	 1	 1.08444	 1.00444;
	 48	 1	 126.9	 4.6	 0	 0	 1	 1.01761	 0	 225	 1	 1.08522	 0.95;
	 49	 1	 2	-3.9	 0	 0	 1	 1.04666	 0	 225	 1	 1.08889	 1.00444;
	 50	 1	 99.1	-8.1	 0	 0	 1	 1.04444	 0	 225	 1	 1.08444	 1.00444;
	 51	 1	 18.4	-9.8	 0	 0	 1	 1.07369	 0	 380	 1	 1.10526	 1.04211;
	 52	 1	 0.3	-2.3	 0	 0	 1	 1.07369	 0	 380	 1	 1.10526	 1.04211;
	 53	 1	 0.3	-4.2	 0	 0	 1	 1.07369	 0	 380	 1	 1.10526	 1.04211;
	 54	 1	 14.6	 12	 0	 0	 1	 1.07369	 0	 380	 1	 1.10526	 1.04211;
	 55	 1	 123.1	 27.4	 0	 0	 1	 1.04666	 0	 225	 1	 1.08889	 1.00444;
	 56	 1	 0	 0	 0	 0	 1	 1.04444	 0	 225	 1	 1.08444	 1.00444;
	 57	 1	 0	 0	 0	 0	 1	 1.07237	 0	 380	 1	 1.10263	 1.04211;
	 58	 1	 128.1	 5.6	 0	 0	 1	 1.04444	 0	 225	 1	 1.08444	 1.00444;
	 59	 1	 0	 0	 0	 0	 1	 1.04444	 0	 225	 1	 1.08444	 1.00444;
	 60	 1	 0	 0	 0	 0	 1	 1.04444	 0	 225	 1	 1.08444	 1.00444;
	 61	 1	 0	 0	 0	 0	 1	 1.07237	 0	 380	 1	 1.10263	 1.04211;
	 62	 1	 0	 0	 0	 0	 1	 1.07237	 0	 380	 1	 1.10263	 1.04211;
	 63	 1	 51.1	-7.6	 0	 0	 1	 1.04444	 0	 225	 1	 1.08444	 1.00444;
	 64	 1	 56.1	 1.4	 0	 0	 1	 1.04444	 0	 225	 1	 1.08444	 1.00444;
	 65	 1	 247.2	 26.7	 0	 0	 1	 1.07237	 0	 380	 1	 1.10263	 1.04211;
	 66	 1	 11.3	 24.4	 0	 0	 1	 1.04666	 0	 225	 1	 1.08889	 1.00444;
	 67	 1	 145.6	-55.6	 0	 0	 1	 1.07369	 0	 380	 1	 1.10526	 1.04211;
	 68	 1	 159.8	-47.4	 0	 0	 1	 1.04615	 0	 225	 1	 1.08787	 1.00444;
	 69	 1	 116.6	-35.3	 0	 0	 1	 1.04444	 0	 225	 1	 1.08444	 1.00444;
	 70	 1	 170.6	 10.8	 0	 0	 1	 1.02989	 0	 90	 1	 1.08201	 0.97778;
	 71	 1	 0	 0	 0	 0	 1	 1.07237	 0	 380	 1	 1.10263	 1.04211;
	 72	 1	 0	 0	 0	 0	 1	 1.07237	 0	 380	 1	 1.10263	 1.04211;
	 73	 1	 0	 0	 0	-64	 1	 1.01505	 0	 20	 1	 1.05	 0.9801;
	 74	 1	 0	 0	 0	-64	 1	 1.01505	 0	 20	 1	 1.05	 0.9801;
	 75	 1	 0	 0	 0	 0	 1	 1.04444	 0	 225	 1	 1.08444	 1.00444;
	 76	 1	 0	 0	 0	 0	 1	 1.07237	 0	 380	 1	 1.10263	 1.04211;
	 77	 1	 0	 0	 0	 0	 1	 1.07237	 0	 380	 1	 1.10263	 1.04211;
	 78	 1	 80.6	-23.4	 0	 0	 1	 1.04444	 0	 225	 1	 1.08444	 1.00444;
	 79	 1	 0	 0	 0	-214	 1	 1.07369	 0	 380	 1	 1.10526	 1.04211;
	 80	 1	 75.9	 4.7	 0	 0	 1	 1.04444	 0	 225	 1	 1.08444	 1.00444;
	 81	 1	 82	-14.8	 0	 0	 1	 1.07237	 0	 380	 1	 1.10263	 1.04211;
	 82	 1	 0	 0	 0	 0	 1	 1.04444	 0	 225	 1	 1.08444	 1.00444;
	 83	 1	 74.4	-7	 0	 0	 1	 1.04444	 0	 225	 1	 1.08444	 1.00444;
	 84	 1	 106.4	-4.2	 0	 0	 1	 1.04444	 0	 225	 1	 1.08444	 1.00444;
	 85	 1	 0.1	 0.3	 0	 0	 1	 1.04524	 0	 225	 1	 1.08604	 1.00444;
	 86	 1	 4.8	 4	 0	 0	 1	 1.04524	 0	 225	 1	 1.08604	 1.00444;
	 87	 1	-9.1	 3.1	 0	 0	 1	 1.07237	 0	 380	 1	 1.10263	 1.04211;
	 88	 1	 154.9	 24.4	 0	 0	 1	 1.04444	 0	 225	 1	 1.08444	 1.00444;
	 89	 1	 46.6	-5.4	 0	 0	 1	 1.04444	 0	 225	 1	 1.08444	 1.00444;
	 90	 1	 0	 0	 0	 0	 1	 1.04444	 0	 225	 1	 1.08444	 1.00444;
	 91	 1	 0	 0	 0	 0	 1	 1.07188	 0	 380	 1	 1.10263	 1.04114;
	 92	 1	 125.1	 6.6	 0	 0	 1	 1.04444	 0	 225	 1	 1.08444	 1.00444;
	 93	 1	 121.7	 5.8	 0	 0	 1	 1.04444	 0	 225	 1	 1.08444	 1.00444;
	 94	 1	 0	 0	 0	 0	 1	 1.04482	 0	 225	 1	 1.08519	 1.00444;
	 95	 1	 0	 0	 0	 0	 1	 1.07237	 0	 380	 1	 1.10263	 1.04211;
	 96	 1	 0	 0	 0	 0	 1	 1.04444	 0	 225	 1	 1.08444	 1.00444;
	 97	 1	 0	 0	 0	 0	 1	 1.04444	 0	 225	 1	 1.08444	 1.00444;
	 98	 1	 0	 0	 0	 0	 1	 1.04444	 0	 225	 1	 1.08444	 1.00444;
	 99	 1	 85.1	-25.1	 0	 0	 1	 1.04666	 0	 225	 1	 1.08889	 1.00444;
	 100	 1	 0	 0	 0	 0	 1	 1.04444	 0	 225	 1	 1.08444	 1.00444;
	 101	 1	 150.5	 9.7	 0	 0	 1	 1.04444	 0	 225	 1	 1.08444	 1.00444;
	 102	 1	 20.5	-3	 0	 0	 1	 1.04444	 0	 225	 1	 1.08444	 1.00444;
	 103	 1	 0	 0	 0	 0	 1	 1.04444	 0	 225	 1	 1.08444	 1.00444;
	 104	 1	 11.5	 1.9	 0	 0	 1	 1.04444	 0	 225	 1	 1.08444	 1.00444;
	 105	 1	 93.5	 10.1	 0	 0	 1	 1.04444	 0	 225	 1	 1.08444	 1.00444;
	 106	 1	 152.2	-34.1	 0	 0	 1	 1.04444	 0	 225	 1	 1.08444	 1.00444;
	 107	 1	 61.7	-33.7	 0	 0	 1	 1.04538	 0	 225	 1	 1.08632	 1.00444;
	 108	 1	 125.9	 9.4	 0	 0	 1	 1.04444	 0	 225	 1	 1.08444	 1.00444;
	 109	 1	 15.7	 0.2	 0	 0	 1	 1.04444	 0	 225	 1	 1.08444	 1.00444;
	 110	 1	 53.9	-5.7	 0	 0	 1	 1.0468	 0	 225	 1	 1.08917	 1.00444;
	 111	 1	 0	 0	 0	 0	 1	 1.07237	 0	 380	 1	 1.10263	 1.04211;
	 112	 1	 0	 0	 0	 0	 1	 1.07237	 0	 380	 1	 1.10263	 1.04211;
	 113	 1	 73.8	 6.6	 0	 0	 1	 1.04444	 0	 225	 1	 1.08444	 1.00444;
	 114	 1	 78.7	-4.4	 0	 0	 1	 1.04444	 0	 225	 1	 1.08444	 1.00444;
	 115	 1	 131.5	 1.7	 0	 0	 1	 1.04444	 0	 225	 1	 1.08444	 1.00444;
	 116	 1	 35.6	 1.5	 0	 0	 1	 1.04444	 0	 225	 1	 1.08444	 1.00444;
	 117	 1	 35.4	 6.6	 0	 0	 1	 1.04444	 0	 225	 1	 1.08444	 1.00444;
	 118	 1	 74.9	-13.1	 0	 0	 1	 1.07369	 0	 380	 1	 1.10526	 1.04211;
	 119	 1	 0	 0	 0	 0	 1	 1.04444	 0	 225	 1	 1.08444	 1.00444;
	 120	 1	 0	 0	 0	 0	 1	 1.04444	 0	 225	 1	 1.08444	 1.00444;
	 121	 1	 198.5	-12.3	 0	 0	 1	 1.02778	 0	 90	 1	 1.07778	 0.97778;
	 122	 1	 0	 0	 0	 0	 1	 1.07369	 0	 380	 1	 1.10526	 1.04211;
	 123	 1	 0	 0	 0	 0	 1	 1.07369	 0	 380	 1	 1.10526	 1.04211;
	 124	 1	 250.4	-0.9	 0	 0	 1	 1.04444	 0	 225	 1	 1.08444	 1.00444;
	 125	 1	 10.9	-2.8	 0	 0	 1	 1.04666	 0	 225	 1	 1.08889	 1.00444;
	 126	 1	 222.5	 12.3	 0	 0	 1	 1.07369	 0	 380	 1	 1.10526	 1.04211;
	 127	 1	 0	 0	 0	-54	 1	 1.15	 0	 20	 1	 1.4	 0.9;
	 128	 1	 0	 0	 0	 0	 1	 1.04666	 0	 225	 1	 1.08889	 1.00444;
	 129	 1	 0	 0	 0	 0	 1	 1.07369	 0	 380	 1	 1.10526	 1.04211;
	 130	 1	 142	 23.8	 0	 0	 1	 1.04444	 0	 225	 1	 1.08444	 1.00444;
	 131	 1	 46	-13.2	 0	 0	 1	 1.04444	 0	 225	 1	 1.08444	 1.00444;
	 132	 1	 0	 0	 0	 0	 1	 1.07237	 0	 380	 1	 1.10263	 1.04211;
	 133	 1	 80.1	-23.2	 0	 0	 1	 1.04444	 0	 225	 1	 1.08444	 1.00444;
	 134	 1	 161.8	-26.3	 0	 0	 1	 1.02222	 0	 90	 1	 1.06667	 0.97778;
	 135	 1	 0	 0	 0	 0	 1	 1.07237	 0	 380	 1	 1.10263	 1.04211;
	 136	 1	 0	 0	 0	 0	 1	 1.07237	 0	 380	 1	 1.10263	 1.04211;
	 137	 1	 71	 5	 0	 0	 1	 1.04444	 0	 225	 1	 1.08444	 1.00444;
	 138	 1	 0	 0	 0	 0	 1	 1.04463	 0	 225	 1	 1.08482	 1.00444;
	 139	 1	 0	 0	 0	 0	 1	 1.04444	 0	 225	 1	 1.08444	 1.00444;
	 140	 1	 0	 0	 0	 0	 1	 1.04444	 0	 225	 1	 1.08444	 1.00444;
	 141	 1	 0	 0	 0	 0	 1	 1.04444	 0	 225	 1	 1.08444	 1.00444;
	 142	 1	 0	 0	 0	 0	 1	 1.04444	 0	 225	 1	 1.08444	 1.00444;
	 143	 1	 0	 0	 0	 0	 1	 1.04666	 0	 225	 1	 1.08889	 1.00444;
	 144	 1	 0	 0	 0	 0	 1	 1.04444	 0	 225	 1	 1.08444	 1.00444;
	 145	 1	 0	 0	 0	 0	 1	 1.04444	 0	 225	 1	 1.08444	 1.00444;
	 146	 1	 0	 0	 0	 0	 1	 1.04444	 0	 225	 1	 1.08444	 1.00444;
	 147	 1	 0	 0	 0	 0	 1	 1.0448	 0	 225	 1	 1.08515	 1.00444;
	 148	 1	 0	 0	 0	 0	 1	 1.04444	 0	 225	 1	 1.08444	 1.00444;
	 149	 1	 0	 0	 0	 0	 1	 1.04444	 0	 225	 1	 1.08444	 1.00444;
	 150	 1	 0	 0	 0	 0	 1	 1.07058	 0	 380	 1	 1.10263	 1.03854;
	 151	 1	-0	-0	 0	 0	 1	 1.07237	 0	 380	 1	 1.10263	 1.04211;
	 152	 1	 0	 0	 0	 0	 1	 1.07056	 0	 380	 1	 1.10263	 1.03848;
	 153	 1	 0	 0	 0	 0	 1	 1.05263	 0	 380	 1	 1.18421	 0.92105;
	 154	 1	 0	 0	 0	 0	 1	 1.07237	 0	 380	 1	 1.10263	 1.04211;
	 155	 1	 0	 0	 0	 0	 1	 1.05263	 0	 380	 1	 1.18421	 0.92105;
	 156	 1	 0	 0	 0	 0	 1	 1.07237	 0	 380	 1	 1.10263	 1.04211;
	 157	 2	 1.4	 0	 0	 0	 1	 1.00942	 0	 20	 1	 1.10244	 0.9164;
	 158	 2	 43	 18	 0	 0	 1	 1	 0	 24	 1	 1.05	 0.95;
	 159	 2	 43	 18	 0	 0	 1	 1	 0	 24	 1	 1.05	 0.95;
	 160	 2	 43	 18	 0	 0	 1	 0.99957	 0	 24	 1	 1.05	 0.94914;
	 161	 2	 0	-0	 0	 0	 1	 1	 0	 20	 1	 1.05	 0.95;
	 162	 2	 30	 14	 0	 0	 1	 0.98022	 0	 20	 1	 1.05	 0.91044;
	 163	 2	 5.6	 2.6	 0	 0	 1	 0.98002	 0	 20	 1	 1.05	 0.91005;
	 164	 2	-0	-0	 0	 0	 1	 1	 0	 20	 1	 1.05	 0.95;
	 165	 2	 0	 0	 0	 0	 1	 1	 0	 20	 1	 1.05	 0.95;
	 166	 2	 0	 0	 0	 0	 1	 1	 0	 20	 1	 1.05	 0.95;
	 167	 2	 0	 0	 0	 0	 1	 1	 0	 18	 1	 1.05	 0.95;
	 168	 2	 0	 0	 0	 0	 1	 1	 0	 3	 1	 1.1	 0.9;
	 169	 2	 0	 0	 0	 0	 1	 1	 0	 3	 1	 1.1	 0.9;
	 170	 2	 0	 0	 0	 0	 1	 1	 0	 3	 1	 1.1	 0.9;
	 171	 2	 41	 15	 0	 0	 1	 0.9967	 0	 24	 1	 1.05	 0.9434;
	 172	 2	 41	 15	 0	 0	 1	 0.99918	 0	 24	 1	 1.05	 0.94836;
];

mpc_regionR3.gen = [
%	bus         Pg          Qg          Qmax        Qmin        Vg          mBase       status      Pmax        Pmin        Pc1         Pc2         Qc1min      Qc1max      Qc2min      Qc2max      ramp_agc    ramp_10     ramp_30     ramp_q      apf         
	 48	 2	 0	 0	 0	 1.01761	 100	 1	 4	 0;
	 157	 1.45	 88.775	 281.46	-103.91	 1.0094195	 100	 1	 1.5	 1.4;
	 158	 587.72	 208.7	 524.6	-107.2	 1	 100	 1	 942.72	 232.72;
	 159	 598.74	 206.28	 511.64	-99.08	 1	 100	 1	 953.74	 243.74;
	 160	 597.74	 228.045	 555.41	-99.32	 0.9995685	 100	 1	 952.74	 242.74;
	 161	 432.5	 80.525	 220.22	-59.17	 1	 100	 1	 685	 180;
	 162	 460	 82.52	 330.28	-165.24	 0.9802185	 100	 1	 610	 310;
	 163	 460	 52.92	 297.67	-191.83	 0.980023	 100	 1	 610	 310;
	 164	 452.5	-19.415	 254.82	-293.65	 1	 100	 1	 700	 205;
	 165	 860	 0.765	 398.39	-396.86	 1	 100	 1	 1380	 340;
	 166	 860	-26.54	 371.08	-424.16	 1	 100	 1	 1380	 340;
	 167	 336.8	 72.9	 272.9	-127.1	 1	 100	 1	 456.8	 216.8;
	 168	 48	-4.18	 8.16	-16.52	 1	 100	 1	 80	 16;
	 169	 48	-4.18	 8.16	-16.52	 1	 100	 1	 80	 16;
	 170	 48	-4.22	 8.12	-16.56	 1	 100	 1	 80	 16;
	 171	 593.37	 216.67	 543.74	-110.4	 0.9967005	 100	 1	 953.37	 233.37;
	 172	 596.37	 213.27	 540.34	-113.8	 0.9991795	 100	 1	 956.37	 236.37;
];

mpc_regionR3.branch = [
%	fbus        tbus        r           x           b           rateA       rateB       rateC       ratio       angle       status      angmin      angmax      
	 8	 1	 0.006163	 0.041067	 0.0759	 446	 446	 446	 0	 0	 1	-30	 30;
	 60	 1	 0.000652	 0.004369	 0.0081	 558	 558	 558	 0	 0	 1	-30	 30;
	 94	 2	 0.000672	 0.004405	 0.0081	 541	 541	 541	 0	 0	 1	-30	 30;
	 147	 2	 0.000968	 0.004602	 0.0081	 304	 304	 304	 0	 0	 1	-30	 30;
	 94	 2	 0.000632	 0.004444	 0.0081	 440	 440	 440	 0	 0	 1	-30	 30;
	 29	 3	 0.009857	 0.04478	 0.077	 405	 405	 405	 0	 0	 1	-30	 30;
	 125	 3	 0.010272	 0.048691	 0.0866	 354	 354	 354	 0	 0	 1	-30	 30;
	 6	 4	 9.9e-05	 0.000415	 0.0456	 434	 434	 434	 0	 0	 1	-30	 30;
	 25	 5	 1e-06	 0.000104	 0.078	 1051	 1051	 1051	 0	 0	 1	-30	 30;
	 42	 5	 0.000353	 0.004584	 0.1184	 2357	 2357	 2357	 0	 0	 1	-30	 30;
	 65	 5	 0.000699	 0.009179	 0.3177	 2487	 2487	 2487	 0	 0	 1	-30	 30;
	 42	 5	 0.000353	 0.004584	 0.1184	 2357	 2357	 2357	 0	 0	 1	-30	 30;
	 65	 5	 0.000734	 0.009245	 0.3148	 2487	 2487	 2487	 0	 0	 1	-30	 30;
	 27	 5	 7e-06	 0.000104	 0.0029	 1382	 1382	 1382	 0	 0	 1	-30	 30;
	 26	 5	 7e-06	 0.000104	 0.0029	 1382	 1382	 1382	 0	 0	 1	-30	 30;
	 41	 6	 0.002556	 0.017333	 0.0805	 418	 418	 418	 0	 0	 1	-30	 30;
	 94	 6	 0.008849	 0.062617	 0.1144	 471	 471	 471	 0	 0	 1	-30	 30;
	 88	 7	 0.013393	 0.069551	 0.1261	 391	 391	 391	 0	 0	 1	-30	 30;
	 93	 7	 0.013491	 0.070361	 0.1271	 412	 412	 412	 0	 0	 1	-30	 30;
	 84	 8	 0.004188	 0.027872	 0.0516	 485	 485	 485	 0	 0	 1	-30	 30;
	 131	 8	 0.00322	 0.022183	 0.0395	 471	 471	 471	 0	 0	 1	-30	 30;
	 131	 8	 0.00322	 0.022183	 0.0395	 541	 541	 541	 0	 0	 1	-30	 30;
	 12	 11	 0.000968	 0.001975	 0.0081	 337	 337	 337	 0	 0	 1	-30	 30;
	 12	 9	 0.000968	 0.001975	 0.001	 335	 335	 335	 0	 0	 1	-30	 30;
	 12	 10	 0.000968	 0.001975	 0.001	 335	 335	 335	 0	 0	 1	-30	 30;
	 75	 12	 0.00348	 0.023956	 0.0456	 535	 535	 535	 0	 0	 1	-30	 30;
	 89	 12	 0.002449	 0.017106	 0.0304	 471	 471	 471	 0	 0	 1	-30	 30;
	 141	 12	 0.006001	 0.041452	 0.078	 515	 515	 515	 0	 0	 1	-30	 30;
	 139	 13	 2e-05	 9.9e-05	 0	 394	 394	 394	 0	 0	 1	-30	 30;
	 140	 14	 0.00237	 0.015803	 0.0294	 558	 558	 558	 0	 0	 1	-30	 30;
	 50	 15	 0.003554	 0.024524	 0.0466	 404	 404	 404	 0	 0	 1	-30	 30;
	 56	 15	 0.006493	 0.043265	 0.08	 558	 558	 558	 0	 0	 1	-30	 30;
	 106	 15	 0.007921	 0.053985	 0.1013	 558	 558	 558	 0	 0	 1	-30	 30;
	 144	 15	 0.004543	 0.030262	 0.0557	 485	 485	 485	 0	 0	 1	-30	 30;
	 45	 16	 0.002015	 0.013551	 0.0764	 449	 449	 449	 0	 0	 1	-30	 30;
	 101	 16	 0.012484	 0.056454	 0.1002	 362	 362	 362	 0	 0	 1	-30	 30;
	 103	 16	 0.000869	 0.003911	 0.0071	 304	 304	 304	 0	 0	 1	-30	 30;
	 104	 16	 0.000869	 0.003911	 0.0071	 304	 304	 304	 0	 0	 1	-30	 30;
	 148	 16	 0.001001	 0.006712	 0.0121	 541	 541	 541	 0	 0	 1	-30	 30;
	 48	 17	 0.00162	 0.007447	 0.0132	 322	 322	 322	 0	 0	 1	-30	 30;
	 99	 17	 0.000889	 0.005965	 0.0111	 575	 575	 575	 0	 0	 1	-30	 30;
	 92	 18	 0.000205	 0.002108	 0.2577	 546	 546	 546	 0	 0	 1	-30	 30;
	 37	 19	 0.002899	 0.029385	 0.7595	 1075	 1075	 1075	 0	 0	 1	-30	 30;
	 77	 19	 0.002045	 0.020735	 0.5343	 1524	 1524	 1524	 0	 0	 1	-30	 30;
	 24	 20	 0.00083	 0.005649	 0.0111	 558	 558	 558	 0	 0	 1	-30	 30;
	 36	 20	 0.002193	 0.014894	 0.0284	 558	 558	 558	 0	 0	 1	-30	 30;
	 132	 22	 0.000499	 0.005048	 0.13	 1380	 1380	 1380	 0	 0	 1	-30	 30;
	 132	 21	 0.000499	 0.005042	 0.13	 1380	 1380	 1380	 0	 0	 1	-30	 30;
	 42	 23	 0.0016	 0.017334	 0.4043	 1579	 1579	 1579	 0	 0	 1	-30	 30;
	 65	 23	 0.000312	 0.004044	 0.1386	 2487	 2487	 2487	 0	 0	 1	-30	 30;
	 95	 23	 0.000824	 0.010499	 0.3754	 2487	 2487	 2487	 0	 0	 1	-30	 30;
	 135	 23	 0.00133	 0.014252	 0.3263	 1579	 1579	 1579	 0	 0	 1	-30	 30;
	 65	 23	 0.000312	 0.004044	 0.1386	 2487	 2487	 2487	 0	 0	 1	-30	 30;
	 95	 23	 0.000824	 0.010505	 0.3754	 2487	 2487	 2487	 0	 0	 1	-30	 30;
	 36	 24	 0.002943	 0.02001	 0.0375	 524	 524	 524	 0	 0	 1	-30	 30;
	 80	 24	 0.005926	 0.04079	 0.077	 558	 558	 558	 0	 0	 1	-30	 30;
	 102	 24	 0.004571	 0.030552	 0.0557	 558	 558	 558	 0	 0	 1	-30	 30;
	 133	 24	 0.002121	 0.009661	 0.0162	 355	 355	 355	 0	 0	 1	-30	 30;
	 142	 24	 0.002969	 0.013217	 0.0233	 400	 400	 400	 0	 0	 1	-30	 30;
	 145	 24	 0.005551	 0.025146	 0.0445	 391	 391	 391	 0	 0	 1	-30	 30;
	 41	 28	 0.007802	 0.052444	 0.1018	 401	 401	 401	 0	 0	 1	-30	 30;
	 78	 28	 0.003101	 0.020563	 0.0385	 558	 558	 558	 0	 0	 1	-30	 30;
	 102	 28	 0.003761	 0.025235	 0.0456	 558	 558	 558	 0	 0	 1	-30	 30;
	 137	 28	 0.008889	 0.032197	 0.0537	 357	 357	 357	 0	 0	 1	-30	 30;
	 41	 28	 0.01442	 0.071763	 0.1291	 372	 372	 372	 0	 0	 1	-30	 30;
	 38	 29	 0.002601	 0.017284	 0.0324	 471	 471	 471	 0	 0	 1	-30	 30;
	 138	 29	 0.008257	 0.036427	 0.0582	 379	 379	 379	 0	 0	 1	-30	 30;
	 92	 30	 0.00642	 0.043852	 0.083	 391	 391	 391	 0	 0	 1	-30	 30;
	 108	 30	 0.003002	 0.020227	 0.0385	 391	 391	 391	 0	 0	 1	-30	 30;
	 41	 31	 0.005491	 0.037076	 0.0658	 535	 535	 535	 0	 0	 1	-30	 30;
	 109	 31	 0.000454	 0.0032	 0.0051	 471	 471	 471	 0	 0	 1	-30	 30;
	 140	 31	 0.00083	 0.005669	 0.0111	 558	 558	 558	 0	 0	 1	-30	 30;
	 41	 31	 0.005412	 0.036543	 0.0658	 558	 558	 558	 0	 0	 1	-30	 30;
	 41	 31	 0.005432	 0.036543	 0.0658	 558	 558	 558	 0	 0	 1	-30	 30;
	 58	 36	 0.002884	 0.019358	 0.0714	 471	 471	 471	 0	 0	 1	-30	 30;
	 88	 36	 0.004978	 0.024514	 0.0435	 383	 383	 383	 0	 0	 1	-30	 30;
	 93	 36	 0.015328	 0.102262	 0.1903	 297	 297	 297	 0	 0	 1	-30	 30;
	 115	 36	 0.005531	 0.02797	 0.0567	 357	 357	 357	 0	 0	 1	-30	 30;
	 146	 36	 0.001067	 0.007289	 0.0486	 487	 487	 487	 0	 0	 1	-30	 30;
	 34	 36	 5.9e-05	 0.000889	 0.003	 935	 935	 935	 0	 0	 1	-30	 30;
	 88	 36	 0.002805	 0.019002	 0.0365	 558	 558	 558	 0	 0	 1	-30	 30;
	 145	 36	 0.001027	 0.006775	 0.0121	 558	 558	 558	 0	 0	 1	-30	 30;
	 32	 36	 7.9e-05	 0.00083	 0.002	 935	 935	 935	 0	 0	 1	-30	 30;
	 33	 36	 5.9e-05	 0.000652	 0.001	 935	 935	 935	 0	 0	 1	-30	 30;
	 42	 37	 0.003102	 0.031524	 0.8202	 1002	 1002	 1002	 0	 0	 1	-30	 30;
	 71	 37	 0.001168	 0.011767	 0.3018	 1579	 1579	 1579	 0	 0	 1	-30	 30;
	 42	 37	 0.00313	 0.031724	 0.8202	 996	 996	 996	 0	 0	 1	-30	 30;
	 72	 37	 0.001163	 0.011728	 0.3018	 1579	 1579	 1579	 0	 0	 1	-30	 30;
	 76	 37	 0.004905	 0.049964	 1.301	 633	 633	 633	 0	 0	 1	-30	 30;
	 35	 37	 2.1e-05	 0.000249	 0.0058	 921	 921	 921	 0	 0	 1	-30	 30;
	 138	 39	 0.000608	 0.004067	 0.0071	 379	 379	 379	 0	 0	 1	-30	 30;
	 147	 39	 0.002054	 0.013689	 0.0253	 541	 541	 541	 0	 0	 1	-30	 30;
	 149	 40	 0.000968	 0.00644	 0.0121	 545	 545	 545	 0	 0	 1	-30	 30;
	 84	 41	 0.011773	 0.053926	 0.0962	 427	 427	 427	 0	 0	 1	-30	 30;
	 62	 42	 0.000966	 0.009803	 0.2526	 1579	 1579	 1579	 0	 0	 1	-30	 30;
	 87	 42	 0.002015	 0.020838	 0.5401	 1517	 1517	 1517	 0	 0	 1	-30	 30;
	 61	 42	 0.000963	 0.009792	 0.2541	 1579	 1579	 1579	 0	 0	 1	-30	 30;
	 130	 43	 0.002805	 0.019378	 0.0365	 515	 515	 515	 0	 0	 1	-30	 30;
	 145	 45	 0.010311	 0.068543	 0.1276	 443	 443	 443	 0	 0	 1	-30	 30;
	 148	 45	 0.001017	 0.006912	 0.0633	 449	 449	 449	 0	 0	 1	-30	 30;
	 67	 46	 0.000976	 0.013206	 0.4448	 2406	 2406	 2406	 0	 0	 1	-30	 30;
	 71	 46	 0.001017	 0.010325	 0.2657	 1828	 1828	 1828	 0	 0	 1	-30	 30;
	 81	 46	 0.001369	 0.017997	 0.6209	 1759	 1759	 1759	 0	 0	 1	-30	 30;
	 91	 46	 0.002352	 0.025391	 0.5704	 1245	 1245	 1245	 0	 0	 1	-30	 30;
	 95	 46	 0.002021	 0.026575	 0.9197	 1191	 1191	 1191	 0	 0	 1	-30	 30;
	 67	 46	 0.000976	 0.013213	 0.4448	 2405	 2405	 2405	 0	 0	 1	-30	 30;
	 72	 46	 0.001017	 0.010325	 0.2657	 1828	 1828	 1828	 0	 0	 1	-30	 30;
	 142	 47	 2e-06	 0.000198	 0.0066	 401	 401	 401	 0	 0	 1	-30	 30;
	 55	 48	 0.006202	 0.041343	 0.0759	 535	 535	 535	 0	 0	 1	-30	 30;
	 128	 48	 0.001205	 0.008099	 0.0152	 575	 575	 575	 0	 0	 1	-30	 30;
...